file 11664785 1749734775                                        
version 3
run Basic-Test-0-20250612-15:25:29-8644
attr configname Basic-Test
attr datetime 20250612-15:25:29
attr datetimef 20250612-152529
attr experiment Basic-Test
attr inifile omnetpp-basic-network.ini
attr iterationvars ""
attr iterationvarsd ""
attr iterationvarsf ""
attr measurement ""
attr network BasicNetwork
attr processid 8644
attr repetition 0
attr replication #0
attr resultdir results/
attr runnumber 0
attr seedset 0
config image-path ../../inet4.5/images
config **.contentServer.numApps 1
config **.contentServer.app[0].typename ContentHostApp
config **.contentServer.app[0].hostedPrefixNames "\"ccnx://spacetime.com/\""
config **.contentServer.app[0].dataNamePrefix "\"info\""
config **.contentServer.app[0].segmentSize 1000byte
config **.contentServer.app[0].numSegmentsPerFile 5
config **.contentServer.app[0].cacheTime 2h
config **.wirelessNode[*].numApps 1
config **.wirelessNode[*].app[0].typename ContentDownloadApp
config **.wirelessNode[*].app[0].interContentDownloadInterval 100s
config **.wirelessNode[*].app[0].requestedPrefixNames "\"ccnx://spacetime.com/\""
config **.wirelessNode[*].app[0].dataNamePrefix "\"info\""
config **.wirelessNode[*].app[0].interestRetransmitTimeout 10s
config **.wirelessNode[*].btWirelessRange 300m
config **.wirelessNode[*].wlanWirelessRange 300m
config **.wirelessAccessRouter.wlanWirelessRange 300m
config **.constraintAreaMinX 0m
config **.constraintAreaMinY 0m
config **.constraintAreaMinZ 0m
config **.constraintAreaMaxX 300m
config **.constraintAreaMaxY 300m
config **.constraintAreaMaxZ 0m
config **.updateInterval 1s
config **.initFromDisplayString true
config network BasicNetwork
config sim-time-limit 24h
config repeat 1
config num-rngs 8
config seed-0-mt 1000
config seed-1-mt 2000
config seed-2-mt 3000
config seed-3-mt 4000
config seed-4-mt 5000
config seed-5-mt 6000
config seed-6-mt 7000
config seed-7-mt 8000
config **.deus.rng-0 1
config **.numen.rng-0 2
config **.app[*].rng-0 3
config **.fwd.rng-0 4
config **.wired[*].rng-0 5
config **.wireless[*].rng-0 6
config **.mobility.rng-0 7
config result-dir results/
config output-vector-file results//omnetpp-basic-network.ini-Basic-Test-0.vec
config output-scalar-file results//omnetpp-basic-network.ini-Basic-Test-0.sca
config **.vector-recording true
config **.scalar-recording true
config **.statistic-recording true
config record-eventlog false
config eventlog-file results//omnetpp-basic-network.ini-Basic-Test-0.elog

vector 0 BasicNetwork.wirelessAccessRouter appContentDownloadDuration:vector ETV
attr recordingmode vector
attr source appContentDownloadDuration
vector 1 BasicNetwork.wirelessAccessRouter appSegmentDownloadDuration:vector ETV
attr recordingmode vector
attr source appSegmentDownloadDuration
vector 2 BasicNetwork.wirelessAccessRouter appTotalInterestsBytesSent:vector ETV
attr recordingmode vector
attr source appTotalInterestsBytesSent
vector 3 BasicNetwork.wirelessAccessRouter appRetransmissionInterestsBytesSent:vector ETV
attr recordingmode vector
attr source appRetransmissionInterestsBytesSent
vector 4 BasicNetwork.wirelessAccessRouter appTotalContentObjsBytesReceived:vector ETV
attr recordingmode vector
attr source appTotalContentObjsBytesReceived
vector 5 BasicNetwork.wirelessAccessRouter appTotalDataBytesReceived:vector ETV
attr recordingmode vector
attr source appTotalDataBytesReceived
vector 6 BasicNetwork.wirelessAccessRouter appTotalInterestsBytesReceived:vector ETV
attr recordingmode vector
attr source appTotalInterestsBytesReceived
vector 7 BasicNetwork.wirelessAccessRouter appTotalContentObjsBytesSent:vector ETV
attr recordingmode vector
attr source appTotalContentObjsBytesSent
vector 8 BasicNetwork.wirelessAccessRouter appTotalDataBytesSent:vector ETV
attr recordingmode vector
attr source appTotalDataBytesSent
vector 9 BasicNetwork.wirelessAccessRouter fwdTotalInterestsBytesReceived:vector ETV
attr recordingmode vector
attr source fwdTotalInterestsBytesReceived
vector 10 BasicNetwork.wirelessAccessRouter fwdTotalInterestRtnsBytesReceived:vector ETV
attr recordingmode vector
attr source fwdTotalInterestRtnsBytesReceived
vector 11 BasicNetwork.wirelessAccessRouter fwdTotalContentObjsBytesReceived:vector ETV
attr recordingmode vector
attr source fwdTotalContentObjsBytesReceived
vector 12 BasicNetwork.wirelessAccessRouter fwdTotalInterestsBytesSent:vector ETV
attr recordingmode vector
attr source fwdTotalInterestsBytesSent
vector 13 BasicNetwork.wirelessAccessRouter fwdTotalInterestRtnsBytesSent:vector ETV
attr recordingmode vector
attr source fwdTotalInterestRtnsBytesSent
vector 14 BasicNetwork.wirelessAccessRouter fwdTotalContentObjsBytesSent:vector ETV
attr recordingmode vector
attr source fwdTotalContentObjsBytesSent
vector 15 BasicNetwork.wirelessAccessRouter fwdCacheSizeBytes:vector ETV
attr recordingmode vector
attr source fwdCacheSizeBytes
vector 16 BasicNetwork.wirelessAccessRouter fwdCacheAdditionsBytes:vector ETV
attr recordingmode vector
attr source fwdCacheAdditionsBytes
vector 17 BasicNetwork.wirelessAccessRouter fwdCacheRemovalsBytes:vector ETV
attr recordingmode vector
attr source fwdCacheRemovalsBytes
vector 18 BasicNetwork.wirelessAccessRouter fwdFIBEntryCount:vector ETV
attr recordingmode vector
attr source fwdFIBEntryCount
vector 19 BasicNetwork.wirelessAccessRouter fwdPITEntryCount:vector ETV
attr recordingmode vector
attr source fwdPITEntryCount
vector 20 BasicNetwork.wirelessAccessRouter fwdCacheHitRatio:vector ETV
attr recordingmode vector
attr source fwdCacheHitRatio
vector 21 BasicNetwork.wirelessAccessRouter fwdCacheMissRatio:vector ETV
attr recordingmode vector
attr source fwdCacheMissRatio
vector 22 BasicNetwork.wirelessAccessRouter transportTotalWiredBytesReceived:vector ETV
attr recordingmode vector
attr source transportTotalWiredBytesReceived
vector 23 BasicNetwork.wirelessAccessRouter transportTotalWiredBytesSent:vector ETV
attr recordingmode vector
attr source transportTotalWiredBytesSent
vector 24 BasicNetwork.wirelessAccessRouter transportTotalWirelessBytesReceived:vector ETV
attr recordingmode vector
attr source transportTotalWirelessBytesReceived
vector 25 BasicNetwork.wirelessAccessRouter transportTotalWirelessBytesSent:vector ETV
attr recordingmode vector
attr source transportTotalWirelessBytesSent
vector 26 BasicNetwork.wirelessNode[0] appContentDownloadDuration:vector ETV
attr recordingmode vector
attr source appContentDownloadDuration
vector 27 BasicNetwork.wirelessNode[0] appSegmentDownloadDuration:vector ETV
attr recordingmode vector
attr source appSegmentDownloadDuration
vector 28 BasicNetwork.wirelessNode[0] appTotalInterestsBytesSent:vector ETV
attr recordingmode vector
attr source appTotalInterestsBytesSent
vector 29 BasicNetwork.wirelessNode[0] appRetransmissionInterestsBytesSent:vector ETV
attr recordingmode vector
attr source appRetransmissionInterestsBytesSent
vector 30 BasicNetwork.wirelessNode[0] appTotalContentObjsBytesReceived:vector ETV
attr recordingmode vector
attr source appTotalContentObjsBytesReceived
vector 31 BasicNetwork.wirelessNode[0] appTotalDataBytesReceived:vector ETV
attr recordingmode vector
attr source appTotalDataBytesReceived
vector 32 BasicNetwork.wirelessNode[0] appTotalInterestsBytesReceived:vector ETV
attr recordingmode vector
attr source appTotalInterestsBytesReceived
vector 33 BasicNetwork.wirelessNode[0] appTotalContentObjsBytesSent:vector ETV
attr recordingmode vector
attr source appTotalContentObjsBytesSent
vector 34 BasicNetwork.wirelessNode[0] appTotalDataBytesSent:vector ETV
attr recordingmode vector
attr source appTotalDataBytesSent
vector 35 BasicNetwork.wirelessNode[0] fwdTotalInterestsBytesReceived:vector ETV
attr recordingmode vector
attr source fwdTotalInterestsBytesReceived
vector 36 BasicNetwork.wirelessNode[0] fwdTotalInterestRtnsBytesReceived:vector ETV
attr recordingmode vector
attr source fwdTotalInterestRtnsBytesReceived
vector 37 BasicNetwork.wirelessNode[0] fwdTotalContentObjsBytesReceived:vector ETV
attr recordingmode vector
attr source fwdTotalContentObjsBytesReceived
vector 38 BasicNetwork.wirelessNode[0] fwdTotalInterestsBytesSent:vector ETV
attr recordingmode vector
attr source fwdTotalInterestsBytesSent
vector 39 BasicNetwork.wirelessNode[0] fwdTotalInterestRtnsBytesSent:vector ETV
attr recordingmode vector
attr source fwdTotalInterestRtnsBytesSent
vector 40 BasicNetwork.wirelessNode[0] fwdTotalContentObjsBytesSent:vector ETV
attr recordingmode vector
attr source fwdTotalContentObjsBytesSent
vector 41 BasicNetwork.wirelessNode[0] fwdCacheSizeBytes:vector ETV
attr recordingmode vector
attr source fwdCacheSizeBytes
vector 42 BasicNetwork.wirelessNode[0] fwdCacheAdditionsBytes:vector ETV
attr recordingmode vector
attr source fwdCacheAdditionsBytes
vector 43 BasicNetwork.wirelessNode[0] fwdCacheRemovalsBytes:vector ETV
attr recordingmode vector
attr source fwdCacheRemovalsBytes
vector 44 BasicNetwork.wirelessNode[0] fwdFIBEntryCount:vector ETV
attr recordingmode vector
attr source fwdFIBEntryCount
vector 45 BasicNetwork.wirelessNode[0] fwdPITEntryCount:vector ETV
attr recordingmode vector
attr source fwdPITEntryCount
vector 46 BasicNetwork.wirelessNode[0] fwdCacheHitRatio:vector ETV
attr recordingmode vector
attr source fwdCacheHitRatio
vector 47 BasicNetwork.wirelessNode[0] fwdCacheMissRatio:vector ETV
attr recordingmode vector
attr source fwdCacheMissRatio
vector 48 BasicNetwork.wirelessNode[0] transportTotalWiredBytesReceived:vector ETV
attr recordingmode vector
attr source transportTotalWiredBytesReceived
vector 49 BasicNetwork.wirelessNode[0] transportTotalWiredBytesSent:vector ETV
attr recordingmode vector
attr source transportTotalWiredBytesSent
vector 50 BasicNetwork.wirelessNode[0] transportTotalWirelessBytesReceived:vector ETV
attr recordingmode vector
attr source transportTotalWirelessBytesReceived
vector 51 BasicNetwork.wirelessNode[0] transportTotalWirelessBytesSent:vector ETV
attr recordingmode vector
attr source transportTotalWirelessBytesSent
vector 52 BasicNetwork.wirelessNode[1] appContentDownloadDuration:vector ETV
attr recordingmode vector
attr source appContentDownloadDuration
vector 53 BasicNetwork.wirelessNode[1] appSegmentDownloadDuration:vector ETV
attr recordingmode vector
attr source appSegmentDownloadDuration
vector 54 BasicNetwork.wirelessNode[1] appTotalInterestsBytesSent:vector ETV
attr recordingmode vector
attr source appTotalInterestsBytesSent
vector 55 BasicNetwork.wirelessNode[1] appRetransmissionInterestsBytesSent:vector ETV
attr recordingmode vector
attr source appRetransmissionInterestsBytesSent
vector 56 BasicNetwork.wirelessNode[1] appTotalContentObjsBytesReceived:vector ETV
attr recordingmode vector
attr source appTotalContentObjsBytesReceived
vector 57 BasicNetwork.wirelessNode[1] appTotalDataBytesReceived:vector ETV
attr recordingmode vector
attr source appTotalDataBytesReceived
vector 58 BasicNetwork.wirelessNode[1] appTotalInterestsBytesReceived:vector ETV
attr recordingmode vector
attr source appTotalInterestsBytesReceived
vector 59 BasicNetwork.wirelessNode[1] appTotalContentObjsBytesSent:vector ETV
attr recordingmode vector
attr source appTotalContentObjsBytesSent
vector 60 BasicNetwork.wirelessNode[1] appTotalDataBytesSent:vector ETV
attr recordingmode vector
attr source appTotalDataBytesSent
vector 61 BasicNetwork.wirelessNode[1] fwdTotalInterestsBytesReceived:vector ETV
attr recordingmode vector
attr source fwdTotalInterestsBytesReceived
vector 62 BasicNetwork.wirelessNode[1] fwdTotalInterestRtnsBytesReceived:vector ETV
attr recordingmode vector
attr source fwdTotalInterestRtnsBytesReceived
vector 63 BasicNetwork.wirelessNode[1] fwdTotalContentObjsBytesReceived:vector ETV
attr recordingmode vector
attr source fwdTotalContentObjsBytesReceived
vector 64 BasicNetwork.wirelessNode[1] fwdTotalInterestsBytesSent:vector ETV
attr recordingmode vector
attr source fwdTotalInterestsBytesSent
vector 65 BasicNetwork.wirelessNode[1] fwdTotalInterestRtnsBytesSent:vector ETV
attr recordingmode vector
attr source fwdTotalInterestRtnsBytesSent
vector 66 BasicNetwork.wirelessNode[1] fwdTotalContentObjsBytesSent:vector ETV
attr recordingmode vector
attr source fwdTotalContentObjsBytesSent
vector 67 BasicNetwork.wirelessNode[1] fwdCacheSizeBytes:vector ETV
attr recordingmode vector
attr source fwdCacheSizeBytes
vector 68 BasicNetwork.wirelessNode[1] fwdCacheAdditionsBytes:vector ETV
attr recordingmode vector
attr source fwdCacheAdditionsBytes
vector 69 BasicNetwork.wirelessNode[1] fwdCacheRemovalsBytes:vector ETV
attr recordingmode vector
attr source fwdCacheRemovalsBytes
vector 70 BasicNetwork.wirelessNode[1] fwdFIBEntryCount:vector ETV
attr recordingmode vector
attr source fwdFIBEntryCount
vector 71 BasicNetwork.wirelessNode[1] fwdPITEntryCount:vector ETV
attr recordingmode vector
attr source fwdPITEntryCount
vector 72 BasicNetwork.wirelessNode[1] fwdCacheHitRatio:vector ETV
attr recordingmode vector
attr source fwdCacheHitRatio
vector 73 BasicNetwork.wirelessNode[1] fwdCacheMissRatio:vector ETV
attr recordingmode vector
attr source fwdCacheMissRatio
vector 74 BasicNetwork.wirelessNode[1] transportTotalWiredBytesReceived:vector ETV
attr recordingmode vector
attr source transportTotalWiredBytesReceived
vector 75 BasicNetwork.wirelessNode[1] transportTotalWiredBytesSent:vector ETV
attr recordingmode vector
attr source transportTotalWiredBytesSent
vector 76 BasicNetwork.wirelessNode[1] transportTotalWirelessBytesReceived:vector ETV
attr recordingmode vector
attr source transportTotalWirelessBytesReceived
vector 77 BasicNetwork.wirelessNode[1] transportTotalWirelessBytesSent:vector ETV
attr recordingmode vector
attr source transportTotalWirelessBytesSent
vector 78 BasicNetwork.contentServer appContentDownloadDuration:vector ETV
attr recordingmode vector
attr source appContentDownloadDuration
vector 79 BasicNetwork.contentServer appSegmentDownloadDuration:vector ETV
attr recordingmode vector
attr source appSegmentDownloadDuration
vector 80 BasicNetwork.contentServer appTotalInterestsBytesSent:vector ETV
attr recordingmode vector
attr source appTotalInterestsBytesSent
vector 81 BasicNetwork.contentServer appRetransmissionInterestsBytesSent:vector ETV
attr recordingmode vector
attr source appRetransmissionInterestsBytesSent
vector 82 BasicNetwork.contentServer appTotalContentObjsBytesReceived:vector ETV
attr recordingmode vector
attr source appTotalContentObjsBytesReceived
vector 83 BasicNetwork.contentServer appTotalDataBytesReceived:vector ETV
attr recordingmode vector
attr source appTotalDataBytesReceived
vector 84 BasicNetwork.contentServer appTotalInterestsBytesReceived:vector ETV
attr recordingmode vector
attr source appTotalInterestsBytesReceived
vector 85 BasicNetwork.contentServer appTotalContentObjsBytesSent:vector ETV
attr recordingmode vector
attr source appTotalContentObjsBytesSent
vector 86 BasicNetwork.contentServer appTotalDataBytesSent:vector ETV
attr recordingmode vector
attr source appTotalDataBytesSent
vector 87 BasicNetwork.contentServer fwdTotalInterestsBytesReceived:vector ETV
attr recordingmode vector
attr source fwdTotalInterestsBytesReceived
vector 88 BasicNetwork.contentServer fwdTotalInterestRtnsBytesReceived:vector ETV
attr recordingmode vector
attr source fwdTotalInterestRtnsBytesReceived
vector 89 BasicNetwork.contentServer fwdTotalContentObjsBytesReceived:vector ETV
attr recordingmode vector
attr source fwdTotalContentObjsBytesReceived
vector 90 BasicNetwork.contentServer fwdTotalInterestsBytesSent:vector ETV
attr recordingmode vector
attr source fwdTotalInterestsBytesSent
vector 91 BasicNetwork.contentServer fwdTotalInterestRtnsBytesSent:vector ETV
attr recordingmode vector
attr source fwdTotalInterestRtnsBytesSent
vector 92 BasicNetwork.contentServer fwdTotalContentObjsBytesSent:vector ETV
attr recordingmode vector
attr source fwdTotalContentObjsBytesSent
vector 93 BasicNetwork.contentServer fwdCacheSizeBytes:vector ETV
attr recordingmode vector
attr source fwdCacheSizeBytes
vector 94 BasicNetwork.contentServer fwdCacheAdditionsBytes:vector ETV
attr recordingmode vector
attr source fwdCacheAdditionsBytes
vector 95 BasicNetwork.contentServer fwdCacheRemovalsBytes:vector ETV
attr recordingmode vector
attr source fwdCacheRemovalsBytes
vector 96 BasicNetwork.contentServer fwdFIBEntryCount:vector ETV
attr recordingmode vector
attr source fwdFIBEntryCount
vector 97 BasicNetwork.contentServer fwdPITEntryCount:vector ETV
attr recordingmode vector
attr source fwdPITEntryCount
vector 98 BasicNetwork.contentServer fwdCacheHitRatio:vector ETV
attr recordingmode vector
attr source fwdCacheHitRatio
vector 99 BasicNetwork.contentServer fwdCacheMissRatio:vector ETV
attr recordingmode vector
attr source fwdCacheMissRatio
vector 100 BasicNetwork.contentServer transportTotalWiredBytesReceived:vector ETV
attr recordingmode vector
attr source transportTotalWiredBytesReceived
vector 101 BasicNetwork.contentServer transportTotalWiredBytesSent:vector ETV
attr recordingmode vector
attr source transportTotalWiredBytesSent
vector 102 BasicNetwork.contentServer transportTotalWirelessBytesReceived:vector ETV
attr recordingmode vector
attr source transportTotalWirelessBytesReceived
vector 103 BasicNetwork.contentServer transportTotalWirelessBytesSent:vector ETV
attr recordingmode vector
attr source transportTotalWirelessBytesSent
vector 104 BasicNetwork appNetworkInterestRetransmissionCount:vector ETV
attr recordingmode vector
attr source appNetworkInterestRetransmissionCount
vector 105 BasicNetwork fwdNetworkCacheHitRatio:vector ETV
attr recordingmode vector
attr source fwdNetworkCacheHitRatio
vector 106 BasicNetwork fwdNetworkCacheMissRatio:vector ETV
attr recordingmode vector
attr source fwdNetworkCacheMissRatio
9	17700 192495 431 506578 100.000384 86369.346112 7895 16 16 126320 2021120
11	210195 216183 449 506588 100.009152 86369.35488 7895 1016 1016 8021320 8149661120
12	426378 200390 431 506578 100.000384 86369.346112 7895 16 16 126320 2021120
14	626768 216183 449 506588 100.009152 86369.35488 7895 1016 1016 8021320 8149661120
15	842951 238761 449 506588 100.009152 86369.35488 7895 1000 7895000 31169460000 1.6406564762e+17
16	1081712 216183 449 506588 100.009152 86369.35488 7895 1000 1000 7895000 7895000000
18	1297895 20 11 12 0 0 2 1 1 2 2
19	1297915 384993 431 506588 100.000384 86369.35488 15790 0 2 9515 11135
20	1682908 192495 431 506578 100.000384 86369.346112 7895 0 0 0 0
21	1875403 192495 431 506578 100.000384 86369.346112 7895 1 1 7895 7895
22	2067898 216183 447 506586 100.009152 86369.35488 7895 1048 1048 8273960 8671110080
23	2284081 200390 433 506579 100.000384 86369.346112 7895 48 48 378960 18190080
24	2484471 200390 429 506577 100.000384 86369.346112 7895 48 48 378960 18190080
25	2684861 216183 450 506589 100.009152 86369.35488 7895 1048 1048 8273960 8671110080
26	2901044 24930 618 506493 100.08768 86369.09184 863 0 0.08768 69.09184 6.0579725311999
27	2925974 132522 459 506493 100.017536 86369.09184 4315 0 0.017536 69.091840000001 1.2115945062401
28	3058496 109251 419 506473 100 86369.074304 4315 16 16 69040 1104640
30	3167747 117887 459 506493 100.017536 86369.09184 4315 1016 1016 4384040 4454184640
31	3285634 117887 459 506493 100.017536 86369.09184 4315 1000 1000 4315000 4315000000
37	3403521 216184 456 506592 100.017536 86369.363264 7895 1016 1016 8021320 8149661120
38	3619705 99996 423 506474 100 86369.074304 3940 16 16 63040 1008640
41	3719701 238762 456 506592 100.017536 86369.363264 7895 1000 7895000 31169460000 1.6406564762e+17
42	3958463 216184 456 506592 100.017536 86369.363264 7895 1000 1000 7895000 7895000000
44	4174647 10 14 14 0 0 1 1 1 1 1
45	4174657 192118 423 506491 100 86369.09184 7880 0 1 3940 3940
46	4366775 157298 423 506474 100 86369.074304 4315 0 0.088028169014085 167.4336439448 10.608441006594
47	4524073 153730 423 506474 100 86369.074304 4315 0.91197183098592 1 4147.5663560552 3990.741153117
50	4677803 216184 453 506590 100.017536 86369.363264 7895 1048 1048 8273960 8671110080
51	4893987 99996 427 506475 100 86369.074304 3940 48 48 189120 9077760
52	4993983 26031 624 506594 100.096064 86369.363264 863 0 0.096064 69.363264 6.0825763880959
53	5020014 133116 475 506594 100.02592 86369.363264 4315 0 0.02592 69.363264000001 1.2165715107841
54	5153130 109740 420 506574 100 86369.345728 4315 16 16 69040 1104640
56	5262870 118377 475 506594 100.02592 86369.363264 4315 1016 1016 4384040 4454184640
57	5381247 118377 475 506594 100.02592 86369.363264 4315 1000 1000 4315000 4315000000
63	5499624 216184 457 506593 100.017536 86369.363264 7895 1016 1016 8021320 8149661120
64	5715808 100385 424 506575 100 86369.345728 3955 16 16 63280 1012480
67	5816193 238762 457 506593 100.017536 86369.363264 7895 1000 7895000 31169460000 1.6406564762e+17
68	6054955 216184 457 506593 100.017536 86369.363264 7895 1000 1000 7895000 7895000000
70	6271139 10 17 17 0 0 1 1 1 1 1
71	6271149 192867 424 506593 100 86369.363264 7910 0 1 3955 3955
72	6464016 162024 424 506575 100 86369.345728 4315 0 0.083818393480792 148.90209207576 8.166359909445
73	6626040 158079 424 506575 100 86369.345728 4315 0.91618160651921 1 4166.0979079242 4025.3621757579
76	6784119 216184 454 506591 100.017536 86369.363264 7895 1048 1048 8273960 8671110080
77	7000303 100385 428 506576 100 86369.345728 3955 48 48 189840 9112320
84	7100688 200390 438 506583 100.000768 86369.346496 7895 16 16 126320 2021120
85	7301078 216180 438 506583 100.000768 86369.346496 7895 1016 1016 8021320 8149661120
86	7517258 216180 438 506583 100.000768 86369.346496 7895 1000 1000 7895000 7895000000
87	7733438 200390 437 506582 100.000768 86369.346496 7895 16 16 126320 2021120
92	7933828 216180 439 506584 100.000768 86369.346496 7895 1016 1016 8021320 8149661120
93	8150008 238758 439 506584 100.000768 86369.346496 7895 1000 7895000 31169460000 1.6406564762e+17
94	8388766 216180 439 506584 100.000768 86369.346496 7895 1000 1000 7895000 7895000000
96	8604946 20 19 20 0 0 2 1 2 3 5
97	8604966 384990 437 506584 100.000768 86369.346496 15790 0 1 7895 7895
98	8989956 192495 437 506582 100.000768 86369.346496 7895 0 0 0 0
99	9182451 192495 437 506582 100.000768 86369.346496 7895 1 1 7895 7895
100	9374946 208285 435 506580 100.000768 86369.346496 7895 48 48 378960 18190080
101	9583231 224075 440 506585 100.000768 86369.346496 7895 1048 1048 8273960 8671110080
105	9807306 942683 423 506582 100 86369.346496 24420 0 0.030246913580247 300.98967392708 6.1641875573532
106	10749989 914795 423 506582 100 86369.346496 24420 0.96975308641975 1 24119.010326073 23824.184839703

