file 38780427 1749743991                                        
version 3
run Simple-IoT-Net-0-20250612-17:51:36-9559
attr configname Simple-IoT-Net
attr datetime 20250612-17:51:36
attr datetimef 20250612-175136
attr experiment Simple-IoT-Net
attr inifile omnetpp-simple-iot-network.ini
attr iterationvars ""
attr iterationvarsd ""
attr iterationvarsf ""
attr measurement ""
attr network SimpleIoTNetwork
attr processid 9559
attr repetition 0
attr replication #0
attr resultdir results/
attr runnumber 0
attr seedset 0
config image-path ../../inet4.5/images
config **.internet.internetNumWiredTransports 1
config **.internet.numApps 2
config **.internet.app[0].typename ThingsApp
config **.internet.app[0].sensorDataRetrievalStartTime 30s
config **.internet.app[0].interDataDownloadInterval uniform(20s,50s)
config **.internet.app[0].requestedSensorNetworkPrefixName "\"ccnx://uhb.de/ee/iot/\""
config **.internet.app[0].interestLifetime 8s
config **.internet.app[0].sensorDataNames "\"temperature;humidity\""
config **.internet.app[0].nextIndexOfSensorDataToRetrieve "intuniform(0, 1)"
config **.internet.app[0].maxSensorDataReadingsToKeep 100
config **.internet.app[0].maxHopsAllowed 10
config **.internet.app[1].typename ContentHostApp
config **.internet.app[1].hostedPrefixNames "\"ccnx://uhb.de/cs/admin/\""
config **.internet.app[1].dataNamePrefix "\"infpo\""
config **.internet.app[1].segmentSize 1000byte
config **.internet.app[1].numSegmentsPerFile "intuniform(5, 20)"
config **.internet.app[1].cacheTime 2h
config **.zfnRouter.coreRouterNumWiredTransports 3
config **.eeCoreRouter.coreRouterNumWiredTransports 4
config **.eeContentServer.numApps 1
config **.eeContentServer.app[0].typename ContentHostApp
config **.eeContentServer.app[0].hostedPrefixNames "\"ccnx://uhb.de/ee/admin/\""
config **.eeContentServer.app[0].dataNamePrefix "\"etpo\""
config **.eeContentServer.app[0].segmentSize 1000byte
config **.eeContentServer.app[0].numSegmentsPerFile "intuniform(5, 20)"
config **.eeContentServer.app[0].cacheTime 2h
config **.eeRouter.accessRouterNumWiredTransports 4
config **.frank.numApps 1
config **.frank.app[0].typename ContentDownloadApp
config **.frank.app[0].interContentDownloadInterval "uniform(100.0s, 150.0s)"
config **.frank.app[0].requestedPrefixNames "\"ccnx://uhb.de/ee/admin/\""
config **.frank.app[0].dataNamePrefix "\"etpo\""
config **.frank.app[0].interestRetransmitTimeout 120s
config **.frank.app[0].nextFileSuffix "intuniform(0, 99)"
config **.eeManagement.numApps 1
config **.eeManagement.app[0].typename ThingsApp
config **.eeManagement.app[0].sensorDataRetrievalStartTime 30s
config **.eeManagement.app[0].interDataDownloadInterval uniform(20s,50s)
config **.eeManagement.app[0].requestedSensorNetworkPrefixName "\"ccnx://uhb.de/ee/iot/\""
config **.eeManagement.app[0].interestLifetime 8s
config **.eeManagement.app[0].sensorDataNames "\"temperature;humidity\""
config **.eeManagement.app[0].nextIndexOfSensorDataToRetrieve "intuniform(0, 1)"
config **.eeManagement.app[0].maxSensorDataReadingsToKeep 100
config **.eeManagement.app[0].maxHopsAllowed 5
config **.eeAP.wlanWirelessRange 80m
config **.peter.numApps 1
config **.peter.app[0].typename ContentDownloadApp
config **.peter.app[0].interContentDownloadInterval "uniform(100.0s, 150.0s)"
config **.peter.app[0].requestedPrefixNames "\"ccnx://uhb.de/ee/admin/\""
config **.peter.app[0].dataNamePrefix "\"etpo\""
config **.peter.app[0].interestRetransmitTimeout 120s
config **.peter.app[0].nextFileSuffix "intuniform(0, 99)"
config **.peter.btWirelessRange 60m
config **.peter.wlanWirelessRange 80m
config **.eeIoTGW.numApps 1
config **.eeIoTGW.app[0].typename IoTGatewayApp
config **.eeIoTGW.app[0].hostedPrefixName "\"ccnx://uhb.de/ee/iot/\""
config **.eeIoTGW.app[0].hostedPrefixNameForSensorNet "\"ccnx://uhb.de/ee/gw/\""
config **.eeIoTGW.app[0].sensorPrefixName "\"ccnx://uhb.de/ee/sensornet/\""
config **.eeIoTGW.app[0].interestLifetime 3s
config **.eeIoTGW.app[0].maximumSensorReadingsToKeep 100
config **.eeIoTGW.iotGatewayLoRaWirelessRange 100m
config **.temperature1.numApps 1
config **.temperature1.app[0].typename SensingApp
config **.temperature1.app[0].sensorPrefixName "\"ccnx://uhb.de/ee/sensornet/\""
config **.temperature1.app[0].gwPrefixName "\"ccnx://uhb.de/ee/gw/\""
config **.temperature1.app[0].interestLifetime 3s
config **.temperature1.app[0].segmentSize 36byte
config **.temperature1.app[0].numSegmentsPerFile 1
config **.temperature1.app[0].cacheTime 800s
config **.temperature1.app[0].sensedDataTypes "\"temperature\""
config **.temperature1.app[0].temperature "uniform(20.0, 23.0)"
config **.temperature1.app[0].wakeupInterval 15s
config **.humidity1.numApps 1
config **.humidity1.app[0].typename SensingApp
config **.humidity1.app[0].sensorPrefixName "\"ccnx://uhb.de/ee/sensornet/\""
config **.humidity1.app[0].gwPrefixName "\"ccnx://uhb.de/ee/gw/\""
config **.humidity1.app[0].interestLifetime 3s
config **.humidity1.app[0].segmentSize 36byte
config **.humidity1.app[0].numSegmentsPerFile 1
config **.humidity1.app[0].cacheTime 800s
config **.humidity1.app[0].sensedDataTypes "\"humidity\""
config **.humidity1.app[0].humidity "uniform(50.0, 70.0)"
config **.humidity1.app[0].wakeupInterval 15s
config **.csCoreRouter.coreRouterNumWiredTransports 5
config **.csContentServer.numApps 1
config **.csContentServer.app[0].typename ContentHostApp
config **.csContentServer.app[0].hostedPrefixNames "\"ccnx://uhb.de/cs/admin/\""
config **.csContentServer.app[0].dataNamePrefix "\"infpo\""
config **.csContentServer.app[0].segmentSize 1000byte
config **.csContentServer.app[0].numSegmentsPerFile "intuniform(5, 20)"
config **.csContentServer.app[0].cacheTime 2h
config **.csRouter.accessRouterNumWiredTransports 2
config **.csManagement.numApps 1
config **.csManagement.app[0].typename ThingsApp
config **.csManagement.app[0].sensorDataRetrievalStartTime 30s
config **.csManagement.app[0].interDataDownloadInterval uniform(20s,50s)
config **.csManagement.app[0].requestedSensorNetworkPrefixName "\"ccnx://uhb.de/cs/iot/\""
config **.csManagement.app[0].interestLifetime 8s
config **.csManagement.app[0].sensorDataNames "\"temperature;humidity\""
config **.csManagement.app[0].nextIndexOfSensorDataToRetrieve "intuniform(0, 1)"
config **.csManagement.app[0].maxSensorDataReadingsToKeep 100
config **.csManagement.app[0].maxHopsAllowed 5
config **.csAP.wlanWirelessRange 80m
config **.silvia.numApps 1
config **.silvia.app[0].typename ContentDownloadApp
config **.silvia.app[0].interContentDownloadInterval "uniform(100.0s, 150.0s)"
config **.silvia.app[0].requestedPrefixNames "\"ccnx://uhb.de/cs/admin/\""
config **.silvia.app[0].dataNamePrefix "\"infpo\""
config **.silvia.app[0].interestRetransmitTimeout 120s
config **.silvia.app[0].nextFileSuffix "intuniform(0, 99)"
config **.silvia.btWirelessRange 60m
config **.silvia.wlanWirelessRange 80m
config **.daniel.numApps 1
config **.daniel.app[0].typename ContentDownloadApp
config **.daniel.app[0].interContentDownloadInterval "uniform(100.0s, 150.0s)"
config **.daniel.app[0].requestedPrefixNames "\"ccnx://uhb.de/cs/admin/\""
config **.daniel.app[0].dataNamePrefix "\"infpo\""
config **.daniel.app[0].interestRetransmitTimeout 120s
config **.daniel.app[0].nextFileSuffix "intuniform(0, 99)"
config **.daniel.btWirelessRange 60m
config **.daniel.wlanWirelessRange 80m
config **.csIoTGW.numApps 1
config **.csIoTGW.app[0].typename IoTGatewayApp
config **.csIoTGW.app[0].hostedPrefixName "\"ccnx://uhb.de/cs/iot/\""
config **.csIoTGW.app[0].hostedPrefixNameForSensorNet "\"ccnx://uhb.de/cs/gw/\""
config **.csIoTGW.app[0].sensorPrefixName "\"ccnx://uhb.de/cs/sensornet/\""
config **.csIoTGW.app[0].interestLifetime 3s
config **.csIoTGW.app[0].maximumSensorReadingsToKeep 100
config **.csIoTGW.iotGatewayLoRaWirelessRange 100m
config **.temperature2.numApps 1
config **.temperature2.app[0].typename SensingApp
config **.temperature2.app[0].sensorPrefixName "\"ccnx://uhb.de/cs/sensornet/\""
config **.temperature2.app[0].gwPrefixName "\"ccnx://uhb.de/cs/gw/\""
config **.temperature2.app[0].interestLifetime 3s
config **.temperature2.app[0].segmentSize 36byte
config **.temperature2.app[0].numSegmentsPerFile 1
config **.temperature2.app[0].cacheTime 800s
config **.temperature2.app[0].sensedDataTypes "\"temperature\""
config **.temperature2.app[0].temperature "uniform(20.0, 23.0)"
config **.temperature2.app[0].wakeupInterval 15s
config **.humidity2.numApps 1
config **.humidity2.app[0].typename SensingApp
config **.humidity2.app[0].sensorPrefixName "\"ccnx://uhb.de/cs/sensornet/\""
config **.humidity2.app[0].gwPrefixName "\"ccnx://uhb.de/cs/gw/\""
config **.humidity2.app[0].interestLifetime 3s
config **.humidity2.app[0].segmentSize 36byte
config **.humidity2.app[0].numSegmentsPerFile 1
config **.humidity2.app[0].cacheTime 800s
config **.humidity2.app[0].sensedDataTypes "\"humidity\""
config **.humidity2.app[0].humidity "uniform(50.0, 70.0)"
config **.humidity2.app[0].wakeupInterval 15s
config **.constraintAreaMinX 0m
config **.constraintAreaMinY 0m
config **.constraintAreaMinZ 0m
config **.constraintAreaMaxX 700m
config **.constraintAreaMaxY 400m
config **.constraintAreaMaxZ 0m
config **.updateInterval 1s
config **.initFromDisplayString true
config network SimpleIoTNetwork
config sim-time-limit 48h
config repeat 1
config num-rngs 8
config seed-0-mt 1000
config seed-1-mt 2000
config seed-2-mt 3000
config seed-3-mt 4000
config seed-4-mt 5000
config seed-5-mt 6000
config seed-6-mt 7000
config seed-7-mt 8000
config **.deus.rng-0 1
config **.numen.rng-0 2
config **.app[*].rng-0 3
config **.fwd.rng-0 4
config **.wired[*].rng-0 5
config **.wireless[*].rng-0 6
config **.mobility.rng-0 7
config result-dir results/
config output-vector-file results//omnetpp-simple-iot-network.ini-Simple-IoT-Net-0.vec
config output-scalar-file results//omnetpp-simple-iot-network.ini-Simple-IoT-Net-0.sca
config **.vector-recording true
config **.scalar-recording true
config **.statistic-recording true
config record-eventlog false
config eventlog-file results//omnetpp-simple-iot-network.ini-Simple-IoT-Net-0.elog

vector 0 SimpleIoTNetwork.eeRouter appContentDownloadDuration:vector ETV
attr recordingmode vector
attr source appContentDownloadDuration
vector 1 SimpleIoTNetwork.eeRouter appSegmentDownloadDuration:vector ETV
attr recordingmode vector
attr source appSegmentDownloadDuration
vector 2 SimpleIoTNetwork.eeRouter appTotalInterestsBytesSent:vector ETV
attr recordingmode vector
attr source appTotalInterestsBytesSent
vector 3 SimpleIoTNetwork.eeRouter appRetransmissionInterestsBytesSent:vector ETV
attr recordingmode vector
attr source appRetransmissionInterestsBytesSent
vector 4 SimpleIoTNetwork.eeRouter appTotalContentObjsBytesReceived:vector ETV
attr recordingmode vector
attr source appTotalContentObjsBytesReceived
vector 5 SimpleIoTNetwork.eeRouter appTotalDataBytesReceived:vector ETV
attr recordingmode vector
attr source appTotalDataBytesReceived
vector 6 SimpleIoTNetwork.eeRouter appTotalInterestsBytesReceived:vector ETV
attr recordingmode vector
attr source appTotalInterestsBytesReceived
vector 7 SimpleIoTNetwork.eeRouter appTotalContentObjsBytesSent:vector ETV
attr recordingmode vector
attr source appTotalContentObjsBytesSent
vector 8 SimpleIoTNetwork.eeRouter appTotalDataBytesSent:vector ETV
attr recordingmode vector
attr source appTotalDataBytesSent
vector 9 SimpleIoTNetwork.eeRouter fwdTotalInterestsBytesReceived:vector ETV
attr recordingmode vector
attr source fwdTotalInterestsBytesReceived
vector 10 SimpleIoTNetwork.eeRouter fwdTotalInterestRtnsBytesReceived:vector ETV
attr recordingmode vector
attr source fwdTotalInterestRtnsBytesReceived
vector 11 SimpleIoTNetwork.eeRouter fwdTotalContentObjsBytesReceived:vector ETV
attr recordingmode vector
attr source fwdTotalContentObjsBytesReceived
vector 12 SimpleIoTNetwork.eeRouter fwdTotalInterestsBytesSent:vector ETV
attr recordingmode vector
attr source fwdTotalInterestsBytesSent
vector 13 SimpleIoTNetwork.eeRouter fwdTotalInterestRtnsBytesSent:vector ETV
attr recordingmode vector
attr source fwdTotalInterestRtnsBytesSent
vector 14 SimpleIoTNetwork.eeRouter fwdTotalContentObjsBytesSent:vector ETV
attr recordingmode vector
attr source fwdTotalContentObjsBytesSent
vector 15 SimpleIoTNetwork.eeRouter fwdCacheSizeBytes:vector ETV
attr recordingmode vector
attr source fwdCacheSizeBytes
vector 16 SimpleIoTNetwork.eeRouter fwdCacheAdditionsBytes:vector ETV
attr recordingmode vector
attr source fwdCacheAdditionsBytes
vector 17 SimpleIoTNetwork.eeRouter fwdCacheRemovalsBytes:vector ETV
attr recordingmode vector
attr source fwdCacheRemovalsBytes
vector 18 SimpleIoTNetwork.eeRouter fwdFIBEntryCount:vector ETV
attr recordingmode vector
attr source fwdFIBEntryCount
vector 19 SimpleIoTNetwork.eeRouter fwdPITEntryCount:vector ETV
attr recordingmode vector
attr source fwdPITEntryCount
vector 20 SimpleIoTNetwork.eeRouter fwdCacheHitRatio:vector ETV
attr recordingmode vector
attr source fwdCacheHitRatio
vector 21 SimpleIoTNetwork.eeRouter fwdCacheMissRatio:vector ETV
attr recordingmode vector
attr source fwdCacheMissRatio
vector 22 SimpleIoTNetwork.eeRouter transportTotalWiredBytesReceived:vector ETV
attr recordingmode vector
attr source transportTotalWiredBytesReceived
vector 23 SimpleIoTNetwork.eeRouter transportTotalWiredBytesSent:vector ETV
attr recordingmode vector
attr source transportTotalWiredBytesSent
vector 24 SimpleIoTNetwork.eeRouter transportTotalWirelessBytesReceived:vector ETV
attr recordingmode vector
attr source transportTotalWirelessBytesReceived
vector 25 SimpleIoTNetwork.eeRouter transportTotalWirelessBytesSent:vector ETV
attr recordingmode vector
attr source transportTotalWirelessBytesSent
vector 26 SimpleIoTNetwork.csAP appContentDownloadDuration:vector ETV
attr recordingmode vector
attr source appContentDownloadDuration
vector 27 SimpleIoTNetwork.csAP appSegmentDownloadDuration:vector ETV
attr recordingmode vector
attr source appSegmentDownloadDuration
vector 28 SimpleIoTNetwork.csAP appTotalInterestsBytesSent:vector ETV
attr recordingmode vector
attr source appTotalInterestsBytesSent
vector 29 SimpleIoTNetwork.csAP appRetransmissionInterestsBytesSent:vector ETV
attr recordingmode vector
attr source appRetransmissionInterestsBytesSent
vector 30 SimpleIoTNetwork.csAP appTotalContentObjsBytesReceived:vector ETV
attr recordingmode vector
attr source appTotalContentObjsBytesReceived
vector 31 SimpleIoTNetwork.csAP appTotalDataBytesReceived:vector ETV
attr recordingmode vector
attr source appTotalDataBytesReceived
vector 32 SimpleIoTNetwork.csAP appTotalInterestsBytesReceived:vector ETV
attr recordingmode vector
attr source appTotalInterestsBytesReceived
vector 33 SimpleIoTNetwork.csAP appTotalContentObjsBytesSent:vector ETV
attr recordingmode vector
attr source appTotalContentObjsBytesSent
vector 34 SimpleIoTNetwork.csAP appTotalDataBytesSent:vector ETV
attr recordingmode vector
attr source appTotalDataBytesSent
vector 35 SimpleIoTNetwork.csAP fwdTotalInterestsBytesReceived:vector ETV
attr recordingmode vector
attr source fwdTotalInterestsBytesReceived
vector 36 SimpleIoTNetwork.csAP fwdTotalInterestRtnsBytesReceived:vector ETV
attr recordingmode vector
attr source fwdTotalInterestRtnsBytesReceived
vector 37 SimpleIoTNetwork.csAP fwdTotalContentObjsBytesReceived:vector ETV
attr recordingmode vector
attr source fwdTotalContentObjsBytesReceived
vector 38 SimpleIoTNetwork.csAP fwdTotalInterestsBytesSent:vector ETV
attr recordingmode vector
attr source fwdTotalInterestsBytesSent
vector 39 SimpleIoTNetwork.csAP fwdTotalInterestRtnsBytesSent:vector ETV
attr recordingmode vector
attr source fwdTotalInterestRtnsBytesSent
vector 40 SimpleIoTNetwork.csAP fwdTotalContentObjsBytesSent:vector ETV
attr recordingmode vector
attr source fwdTotalContentObjsBytesSent
vector 41 SimpleIoTNetwork.csAP fwdCacheSizeBytes:vector ETV
attr recordingmode vector
attr source fwdCacheSizeBytes
vector 42 SimpleIoTNetwork.csAP fwdCacheAdditionsBytes:vector ETV
attr recordingmode vector
attr source fwdCacheAdditionsBytes
vector 43 SimpleIoTNetwork.csAP fwdCacheRemovalsBytes:vector ETV
attr recordingmode vector
attr source fwdCacheRemovalsBytes
vector 44 SimpleIoTNetwork.csAP fwdFIBEntryCount:vector ETV
attr recordingmode vector
attr source fwdFIBEntryCount
vector 45 SimpleIoTNetwork.csAP fwdPITEntryCount:vector ETV
attr recordingmode vector
attr source fwdPITEntryCount
vector 46 SimpleIoTNetwork.csAP fwdCacheHitRatio:vector ETV
attr recordingmode vector
attr source fwdCacheHitRatio
vector 47 SimpleIoTNetwork.csAP fwdCacheMissRatio:vector ETV
attr recordingmode vector
attr source fwdCacheMissRatio
vector 48 SimpleIoTNetwork.csAP transportTotalWiredBytesReceived:vector ETV
attr recordingmode vector
attr source transportTotalWiredBytesReceived
vector 49 SimpleIoTNetwork.csAP transportTotalWiredBytesSent:vector ETV
attr recordingmode vector
attr source transportTotalWiredBytesSent
vector 50 SimpleIoTNetwork.csAP transportTotalWirelessBytesReceived:vector ETV
attr recordingmode vector
attr source transportTotalWirelessBytesReceived
vector 51 SimpleIoTNetwork.csAP transportTotalWirelessBytesSent:vector ETV
attr recordingmode vector
attr source transportTotalWirelessBytesSent
vector 52 SimpleIoTNetwork.frank appContentDownloadDuration:vector ETV
attr recordingmode vector
attr source appContentDownloadDuration
vector 53 SimpleIoTNetwork.frank appSegmentDownloadDuration:vector ETV
attr recordingmode vector
attr source appSegmentDownloadDuration
vector 54 SimpleIoTNetwork.frank appTotalInterestsBytesSent:vector ETV
attr recordingmode vector
attr source appTotalInterestsBytesSent
vector 55 SimpleIoTNetwork.frank appRetransmissionInterestsBytesSent:vector ETV
attr recordingmode vector
attr source appRetransmissionInterestsBytesSent
vector 56 SimpleIoTNetwork.frank appTotalContentObjsBytesReceived:vector ETV
attr recordingmode vector
attr source appTotalContentObjsBytesReceived
vector 57 SimpleIoTNetwork.frank appTotalDataBytesReceived:vector ETV
attr recordingmode vector
attr source appTotalDataBytesReceived
vector 58 SimpleIoTNetwork.frank appTotalInterestsBytesReceived:vector ETV
attr recordingmode vector
attr source appTotalInterestsBytesReceived
vector 59 SimpleIoTNetwork.frank appTotalContentObjsBytesSent:vector ETV
attr recordingmode vector
attr source appTotalContentObjsBytesSent
vector 60 SimpleIoTNetwork.frank appTotalDataBytesSent:vector ETV
attr recordingmode vector
attr source appTotalDataBytesSent
vector 61 SimpleIoTNetwork.frank fwdTotalInterestsBytesReceived:vector ETV
attr recordingmode vector
attr source fwdTotalInterestsBytesReceived
vector 62 SimpleIoTNetwork.frank fwdTotalInterestRtnsBytesReceived:vector ETV
attr recordingmode vector
attr source fwdTotalInterestRtnsBytesReceived
vector 63 SimpleIoTNetwork.frank fwdTotalContentObjsBytesReceived:vector ETV
attr recordingmode vector
attr source fwdTotalContentObjsBytesReceived
vector 64 SimpleIoTNetwork.frank fwdTotalInterestsBytesSent:vector ETV
attr recordingmode vector
attr source fwdTotalInterestsBytesSent
vector 65 SimpleIoTNetwork.frank fwdTotalInterestRtnsBytesSent:vector ETV
attr recordingmode vector
attr source fwdTotalInterestRtnsBytesSent
vector 66 SimpleIoTNetwork.frank fwdTotalContentObjsBytesSent:vector ETV
attr recordingmode vector
attr source fwdTotalContentObjsBytesSent
vector 67 SimpleIoTNetwork.frank fwdCacheSizeBytes:vector ETV
attr recordingmode vector
attr source fwdCacheSizeBytes
vector 68 SimpleIoTNetwork.frank fwdCacheAdditionsBytes:vector ETV
attr recordingmode vector
attr source fwdCacheAdditionsBytes
vector 69 SimpleIoTNetwork.frank fwdCacheRemovalsBytes:vector ETV
attr recordingmode vector
attr source fwdCacheRemovalsBytes
vector 70 SimpleIoTNetwork.frank fwdFIBEntryCount:vector ETV
attr recordingmode vector
attr source fwdFIBEntryCount
vector 71 SimpleIoTNetwork.frank fwdPITEntryCount:vector ETV
attr recordingmode vector
attr source fwdPITEntryCount
vector 72 SimpleIoTNetwork.frank fwdCacheHitRatio:vector ETV
attr recordingmode vector
attr source fwdCacheHitRatio
vector 73 SimpleIoTNetwork.frank fwdCacheMissRatio:vector ETV
attr recordingmode vector
attr source fwdCacheMissRatio
vector 74 SimpleIoTNetwork.frank transportTotalWiredBytesReceived:vector ETV
attr recordingmode vector
attr source transportTotalWiredBytesReceived
vector 75 SimpleIoTNetwork.frank transportTotalWiredBytesSent:vector ETV
attr recordingmode vector
attr source transportTotalWiredBytesSent
vector 76 SimpleIoTNetwork.frank transportTotalWirelessBytesReceived:vector ETV
attr recordingmode vector
attr source transportTotalWirelessBytesReceived
vector 77 SimpleIoTNetwork.frank transportTotalWirelessBytesSent:vector ETV
attr recordingmode vector
attr source transportTotalWirelessBytesSent
vector 78 SimpleIoTNetwork.eeManagement appContentDownloadDuration:vector ETV
attr recordingmode vector
attr source appContentDownloadDuration
vector 79 SimpleIoTNetwork.eeManagement appSegmentDownloadDuration:vector ETV
attr recordingmode vector
attr source appSegmentDownloadDuration
vector 80 SimpleIoTNetwork.eeManagement appTotalInterestsBytesSent:vector ETV
attr recordingmode vector
attr source appTotalInterestsBytesSent
vector 81 SimpleIoTNetwork.eeManagement appRetransmissionInterestsBytesSent:vector ETV
attr recordingmode vector
attr source appRetransmissionInterestsBytesSent
vector 82 SimpleIoTNetwork.eeManagement appTotalContentObjsBytesReceived:vector ETV
attr recordingmode vector
attr source appTotalContentObjsBytesReceived
vector 83 SimpleIoTNetwork.eeManagement appTotalDataBytesReceived:vector ETV
attr recordingmode vector
attr source appTotalDataBytesReceived
vector 84 SimpleIoTNetwork.eeManagement appTotalInterestsBytesReceived:vector ETV
attr recordingmode vector
attr source appTotalInterestsBytesReceived
vector 85 SimpleIoTNetwork.eeManagement appTotalContentObjsBytesSent:vector ETV
attr recordingmode vector
attr source appTotalContentObjsBytesSent
vector 86 SimpleIoTNetwork.eeManagement appTotalDataBytesSent:vector ETV
attr recordingmode vector
attr source appTotalDataBytesSent
vector 87 SimpleIoTNetwork.eeManagement fwdTotalInterestsBytesReceived:vector ETV
attr recordingmode vector
attr source fwdTotalInterestsBytesReceived
vector 88 SimpleIoTNetwork.eeManagement fwdTotalInterestRtnsBytesReceived:vector ETV
attr recordingmode vector
attr source fwdTotalInterestRtnsBytesReceived
vector 89 SimpleIoTNetwork.eeManagement fwdTotalContentObjsBytesReceived:vector ETV
attr recordingmode vector
attr source fwdTotalContentObjsBytesReceived
vector 90 SimpleIoTNetwork.eeManagement fwdTotalInterestsBytesSent:vector ETV
attr recordingmode vector
attr source fwdTotalInterestsBytesSent
vector 91 SimpleIoTNetwork.eeManagement fwdTotalInterestRtnsBytesSent:vector ETV
attr recordingmode vector
attr source fwdTotalInterestRtnsBytesSent
vector 92 SimpleIoTNetwork.eeManagement fwdTotalContentObjsBytesSent:vector ETV
attr recordingmode vector
attr source fwdTotalContentObjsBytesSent
vector 93 SimpleIoTNetwork.eeManagement fwdCacheSizeBytes:vector ETV
attr recordingmode vector
attr source fwdCacheSizeBytes
vector 94 SimpleIoTNetwork.eeManagement fwdCacheAdditionsBytes:vector ETV
attr recordingmode vector
attr source fwdCacheAdditionsBytes
vector 95 SimpleIoTNetwork.eeManagement fwdCacheRemovalsBytes:vector ETV
attr recordingmode vector
attr source fwdCacheRemovalsBytes
vector 96 SimpleIoTNetwork.eeManagement fwdFIBEntryCount:vector ETV
attr recordingmode vector
attr source fwdFIBEntryCount
vector 97 SimpleIoTNetwork.eeManagement fwdPITEntryCount:vector ETV
attr recordingmode vector
attr source fwdPITEntryCount
vector 98 SimpleIoTNetwork.eeManagement fwdCacheHitRatio:vector ETV
attr recordingmode vector
attr source fwdCacheHitRatio
vector 99 SimpleIoTNetwork.eeManagement fwdCacheMissRatio:vector ETV
attr recordingmode vector
attr source fwdCacheMissRatio
vector 100 SimpleIoTNetwork.eeManagement transportTotalWiredBytesReceived:vector ETV
attr recordingmode vector
attr source transportTotalWiredBytesReceived
vector 101 SimpleIoTNetwork.eeManagement transportTotalWiredBytesSent:vector ETV
attr recordingmode vector
attr source transportTotalWiredBytesSent
vector 102 SimpleIoTNetwork.eeManagement transportTotalWirelessBytesReceived:vector ETV
attr recordingmode vector
attr source transportTotalWirelessBytesReceived
vector 103 SimpleIoTNetwork.eeManagement transportTotalWirelessBytesSent:vector ETV
attr recordingmode vector
attr source transportTotalWirelessBytesSent
vector 104 SimpleIoTNetwork.daniel appContentDownloadDuration:vector ETV
attr recordingmode vector
attr source appContentDownloadDuration
vector 105 SimpleIoTNetwork.daniel appSegmentDownloadDuration:vector ETV
attr recordingmode vector
attr source appSegmentDownloadDuration
vector 106 SimpleIoTNetwork.daniel appTotalInterestsBytesSent:vector ETV
attr recordingmode vector
attr source appTotalInterestsBytesSent
vector 107 SimpleIoTNetwork.daniel appRetransmissionInterestsBytesSent:vector ETV
attr recordingmode vector
attr source appRetransmissionInterestsBytesSent
vector 108 SimpleIoTNetwork.daniel appTotalContentObjsBytesReceived:vector ETV
attr recordingmode vector
attr source appTotalContentObjsBytesReceived
vector 109 SimpleIoTNetwork.daniel appTotalDataBytesReceived:vector ETV
attr recordingmode vector
attr source appTotalDataBytesReceived
vector 110 SimpleIoTNetwork.daniel appTotalInterestsBytesReceived:vector ETV
attr recordingmode vector
attr source appTotalInterestsBytesReceived
vector 111 SimpleIoTNetwork.daniel appTotalContentObjsBytesSent:vector ETV
attr recordingmode vector
attr source appTotalContentObjsBytesSent
vector 112 SimpleIoTNetwork.daniel appTotalDataBytesSent:vector ETV
attr recordingmode vector
attr source appTotalDataBytesSent
vector 113 SimpleIoTNetwork.daniel fwdTotalInterestsBytesReceived:vector ETV
attr recordingmode vector
attr source fwdTotalInterestsBytesReceived
vector 114 SimpleIoTNetwork.daniel fwdTotalInterestRtnsBytesReceived:vector ETV
attr recordingmode vector
attr source fwdTotalInterestRtnsBytesReceived
vector 115 SimpleIoTNetwork.daniel fwdTotalContentObjsBytesReceived:vector ETV
attr recordingmode vector
attr source fwdTotalContentObjsBytesReceived
vector 116 SimpleIoTNetwork.daniel fwdTotalInterestsBytesSent:vector ETV
attr recordingmode vector
attr source fwdTotalInterestsBytesSent
vector 117 SimpleIoTNetwork.daniel fwdTotalInterestRtnsBytesSent:vector ETV
attr recordingmode vector
attr source fwdTotalInterestRtnsBytesSent
vector 118 SimpleIoTNetwork.daniel fwdTotalContentObjsBytesSent:vector ETV
attr recordingmode vector
attr source fwdTotalContentObjsBytesSent
vector 119 SimpleIoTNetwork.daniel fwdCacheSizeBytes:vector ETV
attr recordingmode vector
attr source fwdCacheSizeBytes
vector 120 SimpleIoTNetwork.daniel fwdCacheAdditionsBytes:vector ETV
attr recordingmode vector
attr source fwdCacheAdditionsBytes
vector 121 SimpleIoTNetwork.daniel fwdCacheRemovalsBytes:vector ETV
attr recordingmode vector
attr source fwdCacheRemovalsBytes
vector 122 SimpleIoTNetwork.daniel fwdFIBEntryCount:vector ETV
attr recordingmode vector
attr source fwdFIBEntryCount
vector 123 SimpleIoTNetwork.daniel fwdPITEntryCount:vector ETV
attr recordingmode vector
attr source fwdPITEntryCount
vector 124 SimpleIoTNetwork.daniel fwdCacheHitRatio:vector ETV
attr recordingmode vector
attr source fwdCacheHitRatio
vector 125 SimpleIoTNetwork.daniel fwdCacheMissRatio:vector ETV
attr recordingmode vector
attr source fwdCacheMissRatio
vector 126 SimpleIoTNetwork.daniel transportTotalWiredBytesReceived:vector ETV
attr recordingmode vector
attr source transportTotalWiredBytesReceived
vector 127 SimpleIoTNetwork.daniel transportTotalWiredBytesSent:vector ETV
attr recordingmode vector
attr source transportTotalWiredBytesSent
vector 128 SimpleIoTNetwork.daniel transportTotalWirelessBytesReceived:vector ETV
attr recordingmode vector
attr source transportTotalWirelessBytesReceived
vector 129 SimpleIoTNetwork.daniel transportTotalWirelessBytesSent:vector ETV
attr recordingmode vector
attr source transportTotalWirelessBytesSent
vector 130 SimpleIoTNetwork.silvia appContentDownloadDuration:vector ETV
attr recordingmode vector
attr source appContentDownloadDuration
vector 131 SimpleIoTNetwork.silvia appSegmentDownloadDuration:vector ETV
attr recordingmode vector
attr source appSegmentDownloadDuration
vector 132 SimpleIoTNetwork.silvia appTotalInterestsBytesSent:vector ETV
attr recordingmode vector
attr source appTotalInterestsBytesSent
vector 133 SimpleIoTNetwork.silvia appRetransmissionInterestsBytesSent:vector ETV
attr recordingmode vector
attr source appRetransmissionInterestsBytesSent
vector 134 SimpleIoTNetwork.silvia appTotalContentObjsBytesReceived:vector ETV
attr recordingmode vector
attr source appTotalContentObjsBytesReceived
vector 135 SimpleIoTNetwork.silvia appTotalDataBytesReceived:vector ETV
attr recordingmode vector
attr source appTotalDataBytesReceived
vector 136 SimpleIoTNetwork.silvia appTotalInterestsBytesReceived:vector ETV
attr recordingmode vector
attr source appTotalInterestsBytesReceived
vector 137 SimpleIoTNetwork.silvia appTotalContentObjsBytesSent:vector ETV
attr recordingmode vector
attr source appTotalContentObjsBytesSent
vector 138 SimpleIoTNetwork.silvia appTotalDataBytesSent:vector ETV
attr recordingmode vector
attr source appTotalDataBytesSent
vector 139 SimpleIoTNetwork.silvia fwdTotalInterestsBytesReceived:vector ETV
attr recordingmode vector
attr source fwdTotalInterestsBytesReceived
vector 140 SimpleIoTNetwork.silvia fwdTotalInterestRtnsBytesReceived:vector ETV
attr recordingmode vector
attr source fwdTotalInterestRtnsBytesReceived
vector 141 SimpleIoTNetwork.silvia fwdTotalContentObjsBytesReceived:vector ETV
attr recordingmode vector
attr source fwdTotalContentObjsBytesReceived
vector 142 SimpleIoTNetwork.silvia fwdTotalInterestsBytesSent:vector ETV
attr recordingmode vector
attr source fwdTotalInterestsBytesSent
vector 143 SimpleIoTNetwork.silvia fwdTotalInterestRtnsBytesSent:vector ETV
attr recordingmode vector
attr source fwdTotalInterestRtnsBytesSent
vector 144 SimpleIoTNetwork.silvia fwdTotalContentObjsBytesSent:vector ETV
attr recordingmode vector
attr source fwdTotalContentObjsBytesSent
vector 145 SimpleIoTNetwork.silvia fwdCacheSizeBytes:vector ETV
attr recordingmode vector
attr source fwdCacheSizeBytes
vector 146 SimpleIoTNetwork.silvia fwdCacheAdditionsBytes:vector ETV
attr recordingmode vector
attr source fwdCacheAdditionsBytes
vector 147 SimpleIoTNetwork.silvia fwdCacheRemovalsBytes:vector ETV
attr recordingmode vector
attr source fwdCacheRemovalsBytes
vector 148 SimpleIoTNetwork.silvia fwdFIBEntryCount:vector ETV
attr recordingmode vector
attr source fwdFIBEntryCount
vector 149 SimpleIoTNetwork.silvia fwdPITEntryCount:vector ETV
attr recordingmode vector
attr source fwdPITEntryCount
vector 150 SimpleIoTNetwork.silvia fwdCacheHitRatio:vector ETV
attr recordingmode vector
attr source fwdCacheHitRatio
vector 151 SimpleIoTNetwork.silvia fwdCacheMissRatio:vector ETV
attr recordingmode vector
attr source fwdCacheMissRatio
vector 152 SimpleIoTNetwork.silvia transportTotalWiredBytesReceived:vector ETV
attr recordingmode vector
attr source transportTotalWiredBytesReceived
vector 153 SimpleIoTNetwork.silvia transportTotalWiredBytesSent:vector ETV
attr recordingmode vector
attr source transportTotalWiredBytesSent
vector 154 SimpleIoTNetwork.silvia transportTotalWirelessBytesReceived:vector ETV
attr recordingmode vector
attr source transportTotalWirelessBytesReceived
vector 155 SimpleIoTNetwork.silvia transportTotalWirelessBytesSent:vector ETV
attr recordingmode vector
attr source transportTotalWirelessBytesSent
vector 156 SimpleIoTNetwork.peter appContentDownloadDuration:vector ETV
attr recordingmode vector
attr source appContentDownloadDuration
vector 157 SimpleIoTNetwork.peter appSegmentDownloadDuration:vector ETV
attr recordingmode vector
attr source appSegmentDownloadDuration
vector 158 SimpleIoTNetwork.peter appTotalInterestsBytesSent:vector ETV
attr recordingmode vector
attr source appTotalInterestsBytesSent
vector 159 SimpleIoTNetwork.peter appRetransmissionInterestsBytesSent:vector ETV
attr recordingmode vector
attr source appRetransmissionInterestsBytesSent
vector 160 SimpleIoTNetwork.peter appTotalContentObjsBytesReceived:vector ETV
attr recordingmode vector
attr source appTotalContentObjsBytesReceived
vector 161 SimpleIoTNetwork.peter appTotalDataBytesReceived:vector ETV
attr recordingmode vector
attr source appTotalDataBytesReceived
vector 162 SimpleIoTNetwork.peter appTotalInterestsBytesReceived:vector ETV
attr recordingmode vector
attr source appTotalInterestsBytesReceived
vector 163 SimpleIoTNetwork.peter appTotalContentObjsBytesSent:vector ETV
attr recordingmode vector
attr source appTotalContentObjsBytesSent
vector 164 SimpleIoTNetwork.peter appTotalDataBytesSent:vector ETV
attr recordingmode vector
attr source appTotalDataBytesSent
vector 165 SimpleIoTNetwork.peter fwdTotalInterestsBytesReceived:vector ETV
attr recordingmode vector
attr source fwdTotalInterestsBytesReceived
vector 166 SimpleIoTNetwork.peter fwdTotalInterestRtnsBytesReceived:vector ETV
attr recordingmode vector
attr source fwdTotalInterestRtnsBytesReceived
vector 167 SimpleIoTNetwork.peter fwdTotalContentObjsBytesReceived:vector ETV
attr recordingmode vector
attr source fwdTotalContentObjsBytesReceived
vector 168 SimpleIoTNetwork.peter fwdTotalInterestsBytesSent:vector ETV
attr recordingmode vector
attr source fwdTotalInterestsBytesSent
vector 169 SimpleIoTNetwork.peter fwdTotalInterestRtnsBytesSent:vector ETV
attr recordingmode vector
attr source fwdTotalInterestRtnsBytesSent
vector 170 SimpleIoTNetwork.peter fwdTotalContentObjsBytesSent:vector ETV
attr recordingmode vector
attr source fwdTotalContentObjsBytesSent
vector 171 SimpleIoTNetwork.peter fwdCacheSizeBytes:vector ETV
attr recordingmode vector
attr source fwdCacheSizeBytes
vector 172 SimpleIoTNetwork.peter fwdCacheAdditionsBytes:vector ETV
attr recordingmode vector
attr source fwdCacheAdditionsBytes
vector 173 SimpleIoTNetwork.peter fwdCacheRemovalsBytes:vector ETV
attr recordingmode vector
attr source fwdCacheRemovalsBytes
vector 174 SimpleIoTNetwork.peter fwdFIBEntryCount:vector ETV
attr recordingmode vector
attr source fwdFIBEntryCount
vector 175 SimpleIoTNetwork.peter fwdPITEntryCount:vector ETV
attr recordingmode vector
attr source fwdPITEntryCount
vector 176 SimpleIoTNetwork.peter fwdCacheHitRatio:vector ETV
attr recordingmode vector
attr source fwdCacheHitRatio
vector 177 SimpleIoTNetwork.peter fwdCacheMissRatio:vector ETV
attr recordingmode vector
attr source fwdCacheMissRatio
vector 178 SimpleIoTNetwork.peter transportTotalWiredBytesReceived:vector ETV
attr recordingmode vector
attr source transportTotalWiredBytesReceived
vector 179 SimpleIoTNetwork.peter transportTotalWiredBytesSent:vector ETV
attr recordingmode vector
attr source transportTotalWiredBytesSent
vector 180 SimpleIoTNetwork.peter transportTotalWirelessBytesReceived:vector ETV
attr recordingmode vector
attr source transportTotalWirelessBytesReceived
vector 181 SimpleIoTNetwork.peter transportTotalWirelessBytesSent:vector ETV
attr recordingmode vector
attr source transportTotalWirelessBytesSent
vector 182 SimpleIoTNetwork.eeCoreRouter appContentDownloadDuration:vector ETV
attr recordingmode vector
attr source appContentDownloadDuration
vector 183 SimpleIoTNetwork.eeCoreRouter appSegmentDownloadDuration:vector ETV
attr recordingmode vector
attr source appSegmentDownloadDuration
vector 184 SimpleIoTNetwork.eeCoreRouter appTotalInterestsBytesSent:vector ETV
attr recordingmode vector
attr source appTotalInterestsBytesSent
vector 185 SimpleIoTNetwork.eeCoreRouter appRetransmissionInterestsBytesSent:vector ETV
attr recordingmode vector
attr source appRetransmissionInterestsBytesSent
vector 186 SimpleIoTNetwork.eeCoreRouter appTotalContentObjsBytesReceived:vector ETV
attr recordingmode vector
attr source appTotalContentObjsBytesReceived
vector 187 SimpleIoTNetwork.eeCoreRouter appTotalDataBytesReceived:vector ETV
attr recordingmode vector
attr source appTotalDataBytesReceived
vector 188 SimpleIoTNetwork.eeCoreRouter appTotalInterestsBytesReceived:vector ETV
attr recordingmode vector
attr source appTotalInterestsBytesReceived
vector 189 SimpleIoTNetwork.eeCoreRouter appTotalContentObjsBytesSent:vector ETV
attr recordingmode vector
attr source appTotalContentObjsBytesSent
vector 190 SimpleIoTNetwork.eeCoreRouter appTotalDataBytesSent:vector ETV
attr recordingmode vector
attr source appTotalDataBytesSent
vector 191 SimpleIoTNetwork.eeCoreRouter fwdTotalInterestsBytesReceived:vector ETV
attr recordingmode vector
attr source fwdTotalInterestsBytesReceived
vector 192 SimpleIoTNetwork.eeCoreRouter fwdTotalInterestRtnsBytesReceived:vector ETV
attr recordingmode vector
attr source fwdTotalInterestRtnsBytesReceived
vector 193 SimpleIoTNetwork.eeCoreRouter fwdTotalContentObjsBytesReceived:vector ETV
attr recordingmode vector
attr source fwdTotalContentObjsBytesReceived
vector 194 SimpleIoTNetwork.eeCoreRouter fwdTotalInterestsBytesSent:vector ETV
attr recordingmode vector
attr source fwdTotalInterestsBytesSent
vector 195 SimpleIoTNetwork.eeCoreRouter fwdTotalInterestRtnsBytesSent:vector ETV
attr recordingmode vector
attr source fwdTotalInterestRtnsBytesSent
vector 196 SimpleIoTNetwork.eeCoreRouter fwdTotalContentObjsBytesSent:vector ETV
attr recordingmode vector
attr source fwdTotalContentObjsBytesSent
vector 197 SimpleIoTNetwork.eeCoreRouter fwdCacheSizeBytes:vector ETV
attr recordingmode vector
attr source fwdCacheSizeBytes
vector 198 SimpleIoTNetwork.eeCoreRouter fwdCacheAdditionsBytes:vector ETV
attr recordingmode vector
attr source fwdCacheAdditionsBytes
vector 199 SimpleIoTNetwork.eeCoreRouter fwdCacheRemovalsBytes:vector ETV
attr recordingmode vector
attr source fwdCacheRemovalsBytes
vector 200 SimpleIoTNetwork.eeCoreRouter fwdFIBEntryCount:vector ETV
attr recordingmode vector
attr source fwdFIBEntryCount
vector 201 SimpleIoTNetwork.eeCoreRouter fwdPITEntryCount:vector ETV
attr recordingmode vector
attr source fwdPITEntryCount
vector 202 SimpleIoTNetwork.eeCoreRouter fwdCacheHitRatio:vector ETV
attr recordingmode vector
attr source fwdCacheHitRatio
vector 203 SimpleIoTNetwork.eeCoreRouter fwdCacheMissRatio:vector ETV
attr recordingmode vector
attr source fwdCacheMissRatio
vector 204 SimpleIoTNetwork.eeCoreRouter transportTotalWiredBytesReceived:vector ETV
attr recordingmode vector
attr source transportTotalWiredBytesReceived
vector 205 SimpleIoTNetwork.eeCoreRouter transportTotalWiredBytesSent:vector ETV
attr recordingmode vector
attr source transportTotalWiredBytesSent
vector 206 SimpleIoTNetwork.eeCoreRouter transportTotalWirelessBytesReceived:vector ETV
attr recordingmode vector
attr source transportTotalWirelessBytesReceived
vector 207 SimpleIoTNetwork.eeCoreRouter transportTotalWirelessBytesSent:vector ETV
attr recordingmode vector
attr source transportTotalWirelessBytesSent
vector 208 SimpleIoTNetwork.csCoreRouter appContentDownloadDuration:vector ETV
attr recordingmode vector
attr source appContentDownloadDuration
vector 209 SimpleIoTNetwork.csCoreRouter appSegmentDownloadDuration:vector ETV
attr recordingmode vector
attr source appSegmentDownloadDuration
vector 210 SimpleIoTNetwork.csCoreRouter appTotalInterestsBytesSent:vector ETV
attr recordingmode vector
attr source appTotalInterestsBytesSent
vector 211 SimpleIoTNetwork.csCoreRouter appRetransmissionInterestsBytesSent:vector ETV
attr recordingmode vector
attr source appRetransmissionInterestsBytesSent
vector 212 SimpleIoTNetwork.csCoreRouter appTotalContentObjsBytesReceived:vector ETV
attr recordingmode vector
attr source appTotalContentObjsBytesReceived
vector 213 SimpleIoTNetwork.csCoreRouter appTotalDataBytesReceived:vector ETV
attr recordingmode vector
attr source appTotalDataBytesReceived
vector 214 SimpleIoTNetwork.csCoreRouter appTotalInterestsBytesReceived:vector ETV
attr recordingmode vector
attr source appTotalInterestsBytesReceived
vector 215 SimpleIoTNetwork.csCoreRouter appTotalContentObjsBytesSent:vector ETV
attr recordingmode vector
attr source appTotalContentObjsBytesSent
vector 216 SimpleIoTNetwork.csCoreRouter appTotalDataBytesSent:vector ETV
attr recordingmode vector
attr source appTotalDataBytesSent
vector 217 SimpleIoTNetwork.csCoreRouter fwdTotalInterestsBytesReceived:vector ETV
attr recordingmode vector
attr source fwdTotalInterestsBytesReceived
vector 218 SimpleIoTNetwork.csCoreRouter fwdTotalInterestRtnsBytesReceived:vector ETV
attr recordingmode vector
attr source fwdTotalInterestRtnsBytesReceived
vector 219 SimpleIoTNetwork.csCoreRouter fwdTotalContentObjsBytesReceived:vector ETV
attr recordingmode vector
attr source fwdTotalContentObjsBytesReceived
vector 220 SimpleIoTNetwork.csCoreRouter fwdTotalInterestsBytesSent:vector ETV
attr recordingmode vector
attr source fwdTotalInterestsBytesSent
vector 221 SimpleIoTNetwork.csCoreRouter fwdTotalInterestRtnsBytesSent:vector ETV
attr recordingmode vector
attr source fwdTotalInterestRtnsBytesSent
vector 222 SimpleIoTNetwork.csCoreRouter fwdTotalContentObjsBytesSent:vector ETV
attr recordingmode vector
attr source fwdTotalContentObjsBytesSent
vector 223 SimpleIoTNetwork.csCoreRouter fwdCacheSizeBytes:vector ETV
attr recordingmode vector
attr source fwdCacheSizeBytes
vector 224 SimpleIoTNetwork.csCoreRouter fwdCacheAdditionsBytes:vector ETV
attr recordingmode vector
attr source fwdCacheAdditionsBytes
vector 225 SimpleIoTNetwork.csCoreRouter fwdCacheRemovalsBytes:vector ETV
attr recordingmode vector
attr source fwdCacheRemovalsBytes
vector 226 SimpleIoTNetwork.csCoreRouter fwdFIBEntryCount:vector ETV
attr recordingmode vector
attr source fwdFIBEntryCount
vector 227 SimpleIoTNetwork.csCoreRouter fwdPITEntryCount:vector ETV
attr recordingmode vector
attr source fwdPITEntryCount
vector 228 SimpleIoTNetwork.csCoreRouter fwdCacheHitRatio:vector ETV
attr recordingmode vector
attr source fwdCacheHitRatio
vector 229 SimpleIoTNetwork.csCoreRouter fwdCacheMissRatio:vector ETV
attr recordingmode vector
attr source fwdCacheMissRatio
vector 230 SimpleIoTNetwork.csCoreRouter transportTotalWiredBytesReceived:vector ETV
attr recordingmode vector
attr source transportTotalWiredBytesReceived
vector 231 SimpleIoTNetwork.csCoreRouter transportTotalWiredBytesSent:vector ETV
attr recordingmode vector
attr source transportTotalWiredBytesSent
vector 232 SimpleIoTNetwork.csCoreRouter transportTotalWirelessBytesReceived:vector ETV
attr recordingmode vector
attr source transportTotalWirelessBytesReceived
vector 233 SimpleIoTNetwork.csCoreRouter transportTotalWirelessBytesSent:vector ETV
attr recordingmode vector
attr source transportTotalWirelessBytesSent
vector 234 SimpleIoTNetwork.eeContentServer appContentDownloadDuration:vector ETV
attr recordingmode vector
attr source appContentDownloadDuration
vector 235 SimpleIoTNetwork.eeContentServer appSegmentDownloadDuration:vector ETV
attr recordingmode vector
attr source appSegmentDownloadDuration
vector 236 SimpleIoTNetwork.eeContentServer appTotalInterestsBytesSent:vector ETV
attr recordingmode vector
attr source appTotalInterestsBytesSent
vector 237 SimpleIoTNetwork.eeContentServer appRetransmissionInterestsBytesSent:vector ETV
attr recordingmode vector
attr source appRetransmissionInterestsBytesSent
vector 238 SimpleIoTNetwork.eeContentServer appTotalContentObjsBytesReceived:vector ETV
attr recordingmode vector
attr source appTotalContentObjsBytesReceived
vector 239 SimpleIoTNetwork.eeContentServer appTotalDataBytesReceived:vector ETV
attr recordingmode vector
attr source appTotalDataBytesReceived
vector 240 SimpleIoTNetwork.eeContentServer appTotalInterestsBytesReceived:vector ETV
attr recordingmode vector
attr source appTotalInterestsBytesReceived
vector 241 SimpleIoTNetwork.eeContentServer appTotalContentObjsBytesSent:vector ETV
attr recordingmode vector
attr source appTotalContentObjsBytesSent
vector 242 SimpleIoTNetwork.eeContentServer appTotalDataBytesSent:vector ETV
attr recordingmode vector
attr source appTotalDataBytesSent
vector 243 SimpleIoTNetwork.eeContentServer fwdTotalInterestsBytesReceived:vector ETV
attr recordingmode vector
attr source fwdTotalInterestsBytesReceived
vector 244 SimpleIoTNetwork.eeContentServer fwdTotalInterestRtnsBytesReceived:vector ETV
attr recordingmode vector
attr source fwdTotalInterestRtnsBytesReceived
vector 245 SimpleIoTNetwork.eeContentServer fwdTotalContentObjsBytesReceived:vector ETV
attr recordingmode vector
attr source fwdTotalContentObjsBytesReceived
vector 246 SimpleIoTNetwork.eeContentServer fwdTotalInterestsBytesSent:vector ETV
attr recordingmode vector
attr source fwdTotalInterestsBytesSent
vector 247 SimpleIoTNetwork.eeContentServer fwdTotalInterestRtnsBytesSent:vector ETV
attr recordingmode vector
attr source fwdTotalInterestRtnsBytesSent
vector 248 SimpleIoTNetwork.eeContentServer fwdTotalContentObjsBytesSent:vector ETV
attr recordingmode vector
attr source fwdTotalContentObjsBytesSent
vector 249 SimpleIoTNetwork.eeContentServer fwdCacheSizeBytes:vector ETV
attr recordingmode vector
attr source fwdCacheSizeBytes
vector 250 SimpleIoTNetwork.eeContentServer fwdCacheAdditionsBytes:vector ETV
attr recordingmode vector
attr source fwdCacheAdditionsBytes
vector 251 SimpleIoTNetwork.eeContentServer fwdCacheRemovalsBytes:vector ETV
attr recordingmode vector
attr source fwdCacheRemovalsBytes
vector 252 SimpleIoTNetwork.eeContentServer fwdFIBEntryCount:vector ETV
attr recordingmode vector
attr source fwdFIBEntryCount
vector 253 SimpleIoTNetwork.eeContentServer fwdPITEntryCount:vector ETV
attr recordingmode vector
attr source fwdPITEntryCount
vector 254 SimpleIoTNetwork.eeContentServer fwdCacheHitRatio:vector ETV
attr recordingmode vector
attr source fwdCacheHitRatio
vector 255 SimpleIoTNetwork.eeContentServer fwdCacheMissRatio:vector ETV
attr recordingmode vector
attr source fwdCacheMissRatio
vector 256 SimpleIoTNetwork.eeContentServer transportTotalWiredBytesReceived:vector ETV
attr recordingmode vector
attr source transportTotalWiredBytesReceived
vector 257 SimpleIoTNetwork.eeContentServer transportTotalWiredBytesSent:vector ETV
attr recordingmode vector
attr source transportTotalWiredBytesSent
vector 258 SimpleIoTNetwork.eeContentServer transportTotalWirelessBytesReceived:vector ETV
attr recordingmode vector
attr source transportTotalWirelessBytesReceived
vector 259 SimpleIoTNetwork.eeContentServer transportTotalWirelessBytesSent:vector ETV
attr recordingmode vector
attr source transportTotalWirelessBytesSent
vector 260 SimpleIoTNetwork.csContentServer appContentDownloadDuration:vector ETV
attr recordingmode vector
attr source appContentDownloadDuration
vector 261 SimpleIoTNetwork.csContentServer appSegmentDownloadDuration:vector ETV
attr recordingmode vector
attr source appSegmentDownloadDuration
vector 262 SimpleIoTNetwork.csContentServer appTotalInterestsBytesSent:vector ETV
attr recordingmode vector
attr source appTotalInterestsBytesSent
vector 263 SimpleIoTNetwork.csContentServer appRetransmissionInterestsBytesSent:vector ETV
attr recordingmode vector
attr source appRetransmissionInterestsBytesSent
vector 264 SimpleIoTNetwork.csContentServer appTotalContentObjsBytesReceived:vector ETV
attr recordingmode vector
attr source appTotalContentObjsBytesReceived
vector 265 SimpleIoTNetwork.csContentServer appTotalDataBytesReceived:vector ETV
attr recordingmode vector
attr source appTotalDataBytesReceived
vector 266 SimpleIoTNetwork.csContentServer appTotalInterestsBytesReceived:vector ETV
attr recordingmode vector
attr source appTotalInterestsBytesReceived
vector 267 SimpleIoTNetwork.csContentServer appTotalContentObjsBytesSent:vector ETV
attr recordingmode vector
attr source appTotalContentObjsBytesSent
vector 268 SimpleIoTNetwork.csContentServer appTotalDataBytesSent:vector ETV
attr recordingmode vector
attr source appTotalDataBytesSent
vector 269 SimpleIoTNetwork.csContentServer fwdTotalInterestsBytesReceived:vector ETV
attr recordingmode vector
attr source fwdTotalInterestsBytesReceived
vector 270 SimpleIoTNetwork.csContentServer fwdTotalInterestRtnsBytesReceived:vector ETV
attr recordingmode vector
attr source fwdTotalInterestRtnsBytesReceived
vector 271 SimpleIoTNetwork.csContentServer fwdTotalContentObjsBytesReceived:vector ETV
attr recordingmode vector
attr source fwdTotalContentObjsBytesReceived
vector 272 SimpleIoTNetwork.csContentServer fwdTotalInterestsBytesSent:vector ETV
attr recordingmode vector
attr source fwdTotalInterestsBytesSent
vector 273 SimpleIoTNetwork.csContentServer fwdTotalInterestRtnsBytesSent:vector ETV
attr recordingmode vector
attr source fwdTotalInterestRtnsBytesSent
vector 274 SimpleIoTNetwork.csContentServer fwdTotalContentObjsBytesSent:vector ETV
attr recordingmode vector
attr source fwdTotalContentObjsBytesSent
vector 275 SimpleIoTNetwork.csContentServer fwdCacheSizeBytes:vector ETV
attr recordingmode vector
attr source fwdCacheSizeBytes
vector 276 SimpleIoTNetwork.csContentServer fwdCacheAdditionsBytes:vector ETV
attr recordingmode vector
attr source fwdCacheAdditionsBytes
vector 277 SimpleIoTNetwork.csContentServer fwdCacheRemovalsBytes:vector ETV
attr recordingmode vector
attr source fwdCacheRemovalsBytes
vector 278 SimpleIoTNetwork.csContentServer fwdFIBEntryCount:vector ETV
attr recordingmode vector
attr source fwdFIBEntryCount
vector 279 SimpleIoTNetwork.csContentServer fwdPITEntryCount:vector ETV
attr recordingmode vector
attr source fwdPITEntryCount
vector 280 SimpleIoTNetwork.csContentServer fwdCacheHitRatio:vector ETV
attr recordingmode vector
attr source fwdCacheHitRatio
vector 281 SimpleIoTNetwork.csContentServer fwdCacheMissRatio:vector ETV
attr recordingmode vector
attr source fwdCacheMissRatio
vector 282 SimpleIoTNetwork.csContentServer transportTotalWiredBytesReceived:vector ETV
attr recordingmode vector
attr source transportTotalWiredBytesReceived
vector 283 SimpleIoTNetwork.csContentServer transportTotalWiredBytesSent:vector ETV
attr recordingmode vector
attr source transportTotalWiredBytesSent
vector 284 SimpleIoTNetwork.csContentServer transportTotalWirelessBytesReceived:vector ETV
attr recordingmode vector
attr source transportTotalWirelessBytesReceived
vector 285 SimpleIoTNetwork.csContentServer transportTotalWirelessBytesSent:vector ETV
attr recordingmode vector
attr source transportTotalWirelessBytesSent
vector 286 SimpleIoTNetwork.eeIoTGW appContentDownloadDuration:vector ETV
attr recordingmode vector
attr source appContentDownloadDuration
vector 287 SimpleIoTNetwork.eeIoTGW appSegmentDownloadDuration:vector ETV
attr recordingmode vector
attr source appSegmentDownloadDuration
vector 288 SimpleIoTNetwork.eeIoTGW appTotalInterestsBytesSent:vector ETV
attr recordingmode vector
attr source appTotalInterestsBytesSent
vector 289 SimpleIoTNetwork.eeIoTGW appRetransmissionInterestsBytesSent:vector ETV
attr recordingmode vector
attr source appRetransmissionInterestsBytesSent
vector 290 SimpleIoTNetwork.eeIoTGW appTotalContentObjsBytesReceived:vector ETV
attr recordingmode vector
attr source appTotalContentObjsBytesReceived
vector 291 SimpleIoTNetwork.eeIoTGW appTotalDataBytesReceived:vector ETV
attr recordingmode vector
attr source appTotalDataBytesReceived
vector 292 SimpleIoTNetwork.eeIoTGW appTotalInterestsBytesReceived:vector ETV
attr recordingmode vector
attr source appTotalInterestsBytesReceived
vector 293 SimpleIoTNetwork.eeIoTGW appTotalContentObjsBytesSent:vector ETV
attr recordingmode vector
attr source appTotalContentObjsBytesSent
vector 294 SimpleIoTNetwork.eeIoTGW appTotalDataBytesSent:vector ETV
attr recordingmode vector
attr source appTotalDataBytesSent
vector 295 SimpleIoTNetwork.eeIoTGW fwdTotalInterestsBytesReceived:vector ETV
attr recordingmode vector
attr source fwdTotalInterestsBytesReceived
vector 296 SimpleIoTNetwork.eeIoTGW fwdTotalInterestRtnsBytesReceived:vector ETV
attr recordingmode vector
attr source fwdTotalInterestRtnsBytesReceived
vector 297 SimpleIoTNetwork.eeIoTGW fwdTotalContentObjsBytesReceived:vector ETV
attr recordingmode vector
attr source fwdTotalContentObjsBytesReceived
vector 298 SimpleIoTNetwork.eeIoTGW fwdTotalInterestsBytesSent:vector ETV
attr recordingmode vector
attr source fwdTotalInterestsBytesSent
vector 299 SimpleIoTNetwork.eeIoTGW fwdTotalInterestRtnsBytesSent:vector ETV
attr recordingmode vector
attr source fwdTotalInterestRtnsBytesSent
vector 300 SimpleIoTNetwork.eeIoTGW fwdTotalContentObjsBytesSent:vector ETV
attr recordingmode vector
attr source fwdTotalContentObjsBytesSent
vector 301 SimpleIoTNetwork.eeIoTGW fwdCacheSizeBytes:vector ETV
attr recordingmode vector
attr source fwdCacheSizeBytes
vector 302 SimpleIoTNetwork.eeIoTGW fwdCacheAdditionsBytes:vector ETV
attr recordingmode vector
attr source fwdCacheAdditionsBytes
vector 303 SimpleIoTNetwork.eeIoTGW fwdCacheRemovalsBytes:vector ETV
attr recordingmode vector
attr source fwdCacheRemovalsBytes
vector 304 SimpleIoTNetwork.eeIoTGW fwdFIBEntryCount:vector ETV
attr recordingmode vector
attr source fwdFIBEntryCount
vector 305 SimpleIoTNetwork.eeIoTGW fwdPITEntryCount:vector ETV
attr recordingmode vector
attr source fwdPITEntryCount
vector 306 SimpleIoTNetwork.eeIoTGW fwdCacheHitRatio:vector ETV
attr recordingmode vector
attr source fwdCacheHitRatio
vector 307 SimpleIoTNetwork.eeIoTGW fwdCacheMissRatio:vector ETV
attr recordingmode vector
attr source fwdCacheMissRatio
vector 308 SimpleIoTNetwork.eeIoTGW transportTotalWiredBytesReceived:vector ETV
attr recordingmode vector
attr source transportTotalWiredBytesReceived
vector 309 SimpleIoTNetwork.eeIoTGW transportTotalWiredBytesSent:vector ETV
attr recordingmode vector
attr source transportTotalWiredBytesSent
vector 310 SimpleIoTNetwork.eeIoTGW transportTotalWirelessBytesReceived:vector ETV
attr recordingmode vector
attr source transportTotalWirelessBytesReceived
vector 311 SimpleIoTNetwork.eeIoTGW transportTotalWirelessBytesSent:vector ETV
attr recordingmode vector
attr source transportTotalWirelessBytesSent
vector 312 SimpleIoTNetwork.csIoTGW appContentDownloadDuration:vector ETV
attr recordingmode vector
attr source appContentDownloadDuration
vector 313 SimpleIoTNetwork.csIoTGW appSegmentDownloadDuration:vector ETV
attr recordingmode vector
attr source appSegmentDownloadDuration
vector 314 SimpleIoTNetwork.csIoTGW appTotalInterestsBytesSent:vector ETV
attr recordingmode vector
attr source appTotalInterestsBytesSent
vector 315 SimpleIoTNetwork.csIoTGW appRetransmissionInterestsBytesSent:vector ETV
attr recordingmode vector
attr source appRetransmissionInterestsBytesSent
vector 316 SimpleIoTNetwork.csIoTGW appTotalContentObjsBytesReceived:vector ETV
attr recordingmode vector
attr source appTotalContentObjsBytesReceived
vector 317 SimpleIoTNetwork.csIoTGW appTotalDataBytesReceived:vector ETV
attr recordingmode vector
attr source appTotalDataBytesReceived
vector 318 SimpleIoTNetwork.csIoTGW appTotalInterestsBytesReceived:vector ETV
attr recordingmode vector
attr source appTotalInterestsBytesReceived
vector 319 SimpleIoTNetwork.csIoTGW appTotalContentObjsBytesSent:vector ETV
attr recordingmode vector
attr source appTotalContentObjsBytesSent
vector 320 SimpleIoTNetwork.csIoTGW appTotalDataBytesSent:vector ETV
attr recordingmode vector
attr source appTotalDataBytesSent
vector 321 SimpleIoTNetwork.csIoTGW fwdTotalInterestsBytesReceived:vector ETV
attr recordingmode vector
attr source fwdTotalInterestsBytesReceived
vector 322 SimpleIoTNetwork.csIoTGW fwdTotalInterestRtnsBytesReceived:vector ETV
attr recordingmode vector
attr source fwdTotalInterestRtnsBytesReceived
vector 323 SimpleIoTNetwork.csIoTGW fwdTotalContentObjsBytesReceived:vector ETV
attr recordingmode vector
attr source fwdTotalContentObjsBytesReceived
vector 324 SimpleIoTNetwork.csIoTGW fwdTotalInterestsBytesSent:vector ETV
attr recordingmode vector
attr source fwdTotalInterestsBytesSent
vector 325 SimpleIoTNetwork.csIoTGW fwdTotalInterestRtnsBytesSent:vector ETV
attr recordingmode vector
attr source fwdTotalInterestRtnsBytesSent
vector 326 SimpleIoTNetwork.csIoTGW fwdTotalContentObjsBytesSent:vector ETV
attr recordingmode vector
attr source fwdTotalContentObjsBytesSent
vector 327 SimpleIoTNetwork.csIoTGW fwdCacheSizeBytes:vector ETV
attr recordingmode vector
attr source fwdCacheSizeBytes
vector 328 SimpleIoTNetwork.csIoTGW fwdCacheAdditionsBytes:vector ETV
attr recordingmode vector
attr source fwdCacheAdditionsBytes
vector 329 SimpleIoTNetwork.csIoTGW fwdCacheRemovalsBytes:vector ETV
attr recordingmode vector
attr source fwdCacheRemovalsBytes
vector 330 SimpleIoTNetwork.csIoTGW fwdFIBEntryCount:vector ETV
attr recordingmode vector
attr source fwdFIBEntryCount
vector 331 SimpleIoTNetwork.csIoTGW fwdPITEntryCount:vector ETV
attr recordingmode vector
attr source fwdPITEntryCount
vector 332 SimpleIoTNetwork.csIoTGW fwdCacheHitRatio:vector ETV
attr recordingmode vector
attr source fwdCacheHitRatio
vector 333 SimpleIoTNetwork.csIoTGW fwdCacheMissRatio:vector ETV
attr recordingmode vector
attr source fwdCacheMissRatio
vector 334 SimpleIoTNetwork.csIoTGW transportTotalWiredBytesReceived:vector ETV
attr recordingmode vector
attr source transportTotalWiredBytesReceived
vector 335 SimpleIoTNetwork.csIoTGW transportTotalWiredBytesSent:vector ETV
attr recordingmode vector
attr source transportTotalWiredBytesSent
vector 336 SimpleIoTNetwork.csIoTGW transportTotalWirelessBytesReceived:vector ETV
attr recordingmode vector
attr source transportTotalWirelessBytesReceived
vector 337 SimpleIoTNetwork.csIoTGW transportTotalWirelessBytesSent:vector ETV
attr recordingmode vector
attr source transportTotalWirelessBytesSent
vector 338 SimpleIoTNetwork.temperature1 appContentDownloadDuration:vector ETV
attr recordingmode vector
attr source appContentDownloadDuration
vector 339 SimpleIoTNetwork.temperature1 appSegmentDownloadDuration:vector ETV
attr recordingmode vector
attr source appSegmentDownloadDuration
vector 340 SimpleIoTNetwork.temperature1 appTotalInterestsBytesSent:vector ETV
attr recordingmode vector
attr source appTotalInterestsBytesSent
vector 341 SimpleIoTNetwork.temperature1 appRetransmissionInterestsBytesSent:vector ETV
attr recordingmode vector
attr source appRetransmissionInterestsBytesSent
vector 342 SimpleIoTNetwork.temperature1 appTotalContentObjsBytesReceived:vector ETV
attr recordingmode vector
attr source appTotalContentObjsBytesReceived
vector 343 SimpleIoTNetwork.temperature1 appTotalDataBytesReceived:vector ETV
attr recordingmode vector
attr source appTotalDataBytesReceived
vector 344 SimpleIoTNetwork.temperature1 appTotalInterestsBytesReceived:vector ETV
attr recordingmode vector
attr source appTotalInterestsBytesReceived
vector 345 SimpleIoTNetwork.temperature1 appTotalContentObjsBytesSent:vector ETV
attr recordingmode vector
attr source appTotalContentObjsBytesSent
vector 346 SimpleIoTNetwork.temperature1 appTotalDataBytesSent:vector ETV
attr recordingmode vector
attr source appTotalDataBytesSent
vector 347 SimpleIoTNetwork.temperature1 fwdTotalInterestsBytesReceived:vector ETV
attr recordingmode vector
attr source fwdTotalInterestsBytesReceived
vector 348 SimpleIoTNetwork.temperature1 fwdTotalInterestRtnsBytesReceived:vector ETV
attr recordingmode vector
attr source fwdTotalInterestRtnsBytesReceived
vector 349 SimpleIoTNetwork.temperature1 fwdTotalContentObjsBytesReceived:vector ETV
attr recordingmode vector
attr source fwdTotalContentObjsBytesReceived
vector 350 SimpleIoTNetwork.temperature1 fwdTotalInterestsBytesSent:vector ETV
attr recordingmode vector
attr source fwdTotalInterestsBytesSent
vector 351 SimpleIoTNetwork.temperature1 fwdTotalInterestRtnsBytesSent:vector ETV
attr recordingmode vector
attr source fwdTotalInterestRtnsBytesSent
vector 352 SimpleIoTNetwork.temperature1 fwdTotalContentObjsBytesSent:vector ETV
attr recordingmode vector
attr source fwdTotalContentObjsBytesSent
vector 353 SimpleIoTNetwork.temperature1 fwdCacheSizeBytes:vector ETV
attr recordingmode vector
attr source fwdCacheSizeBytes
vector 354 SimpleIoTNetwork.temperature1 fwdCacheAdditionsBytes:vector ETV
attr recordingmode vector
attr source fwdCacheAdditionsBytes
vector 355 SimpleIoTNetwork.temperature1 fwdCacheRemovalsBytes:vector ETV
attr recordingmode vector
attr source fwdCacheRemovalsBytes
vector 356 SimpleIoTNetwork.temperature1 fwdFIBEntryCount:vector ETV
attr recordingmode vector
attr source fwdFIBEntryCount
vector 357 SimpleIoTNetwork.temperature1 fwdPITEntryCount:vector ETV
attr recordingmode vector
attr source fwdPITEntryCount
vector 358 SimpleIoTNetwork.temperature1 fwdCacheHitRatio:vector ETV
attr recordingmode vector
attr source fwdCacheHitRatio
vector 359 SimpleIoTNetwork.temperature1 fwdCacheMissRatio:vector ETV
attr recordingmode vector
attr source fwdCacheMissRatio
vector 360 SimpleIoTNetwork.temperature1 transportTotalWiredBytesReceived:vector ETV
attr recordingmode vector
attr source transportTotalWiredBytesReceived
vector 361 SimpleIoTNetwork.temperature1 transportTotalWiredBytesSent:vector ETV
attr recordingmode vector
attr source transportTotalWiredBytesSent
vector 362 SimpleIoTNetwork.temperature1 transportTotalWirelessBytesReceived:vector ETV
attr recordingmode vector
attr source transportTotalWirelessBytesReceived
vector 363 SimpleIoTNetwork.temperature1 transportTotalWirelessBytesSent:vector ETV
attr recordingmode vector
attr source transportTotalWirelessBytesSent
vector 364 SimpleIoTNetwork.humidity1 appContentDownloadDuration:vector ETV
attr recordingmode vector
attr source appContentDownloadDuration
vector 365 SimpleIoTNetwork.humidity1 appSegmentDownloadDuration:vector ETV
attr recordingmode vector
attr source appSegmentDownloadDuration
vector 366 SimpleIoTNetwork.humidity1 appTotalInterestsBytesSent:vector ETV
attr recordingmode vector
attr source appTotalInterestsBytesSent
vector 367 SimpleIoTNetwork.humidity1 appRetransmissionInterestsBytesSent:vector ETV
attr recordingmode vector
attr source appRetransmissionInterestsBytesSent
vector 368 SimpleIoTNetwork.humidity1 appTotalContentObjsBytesReceived:vector ETV
attr recordingmode vector
attr source appTotalContentObjsBytesReceived
vector 369 SimpleIoTNetwork.humidity1 appTotalDataBytesReceived:vector ETV
attr recordingmode vector
attr source appTotalDataBytesReceived
vector 370 SimpleIoTNetwork.humidity1 appTotalInterestsBytesReceived:vector ETV
attr recordingmode vector
attr source appTotalInterestsBytesReceived
vector 371 SimpleIoTNetwork.humidity1 appTotalContentObjsBytesSent:vector ETV
attr recordingmode vector
attr source appTotalContentObjsBytesSent
vector 372 SimpleIoTNetwork.humidity1 appTotalDataBytesSent:vector ETV
attr recordingmode vector
attr source appTotalDataBytesSent
vector 373 SimpleIoTNetwork.humidity1 fwdTotalInterestsBytesReceived:vector ETV
attr recordingmode vector
attr source fwdTotalInterestsBytesReceived
vector 374 SimpleIoTNetwork.humidity1 fwdTotalInterestRtnsBytesReceived:vector ETV
attr recordingmode vector
attr source fwdTotalInterestRtnsBytesReceived
vector 375 SimpleIoTNetwork.humidity1 fwdTotalContentObjsBytesReceived:vector ETV
attr recordingmode vector
attr source fwdTotalContentObjsBytesReceived
vector 376 SimpleIoTNetwork.humidity1 fwdTotalInterestsBytesSent:vector ETV
attr recordingmode vector
attr source fwdTotalInterestsBytesSent
vector 377 SimpleIoTNetwork.humidity1 fwdTotalInterestRtnsBytesSent:vector ETV
attr recordingmode vector
attr source fwdTotalInterestRtnsBytesSent
vector 378 SimpleIoTNetwork.humidity1 fwdTotalContentObjsBytesSent:vector ETV
attr recordingmode vector
attr source fwdTotalContentObjsBytesSent
vector 379 SimpleIoTNetwork.humidity1 fwdCacheSizeBytes:vector ETV
attr recordingmode vector
attr source fwdCacheSizeBytes
vector 380 SimpleIoTNetwork.humidity1 fwdCacheAdditionsBytes:vector ETV
attr recordingmode vector
attr source fwdCacheAdditionsBytes
vector 381 SimpleIoTNetwork.humidity1 fwdCacheRemovalsBytes:vector ETV
attr recordingmode vector
attr source fwdCacheRemovalsBytes
vector 382 SimpleIoTNetwork.humidity1 fwdFIBEntryCount:vector ETV
attr recordingmode vector
attr source fwdFIBEntryCount
vector 383 SimpleIoTNetwork.humidity1 fwdPITEntryCount:vector ETV
attr recordingmode vector
attr source fwdPITEntryCount
vector 384 SimpleIoTNetwork.humidity1 fwdCacheHitRatio:vector ETV
attr recordingmode vector
attr source fwdCacheHitRatio
vector 385 SimpleIoTNetwork.humidity1 fwdCacheMissRatio:vector ETV
attr recordingmode vector
attr source fwdCacheMissRatio
vector 386 SimpleIoTNetwork.humidity1 transportTotalWiredBytesReceived:vector ETV
attr recordingmode vector
attr source transportTotalWiredBytesReceived
vector 387 SimpleIoTNetwork.humidity1 transportTotalWiredBytesSent:vector ETV
attr recordingmode vector
attr source transportTotalWiredBytesSent
vector 388 SimpleIoTNetwork.humidity1 transportTotalWirelessBytesReceived:vector ETV
attr recordingmode vector
attr source transportTotalWirelessBytesReceived
vector 389 SimpleIoTNetwork.humidity1 transportTotalWirelessBytesSent:vector ETV
attr recordingmode vector
attr source transportTotalWirelessBytesSent
vector 390 SimpleIoTNetwork.humidity2 appContentDownloadDuration:vector ETV
attr recordingmode vector
attr source appContentDownloadDuration
vector 391 SimpleIoTNetwork.humidity2 appSegmentDownloadDuration:vector ETV
attr recordingmode vector
attr source appSegmentDownloadDuration
vector 392 SimpleIoTNetwork.humidity2 appTotalInterestsBytesSent:vector ETV
attr recordingmode vector
attr source appTotalInterestsBytesSent
vector 393 SimpleIoTNetwork.humidity2 appRetransmissionInterestsBytesSent:vector ETV
attr recordingmode vector
attr source appRetransmissionInterestsBytesSent
vector 394 SimpleIoTNetwork.humidity2 appTotalContentObjsBytesReceived:vector ETV
attr recordingmode vector
attr source appTotalContentObjsBytesReceived
vector 395 SimpleIoTNetwork.humidity2 appTotalDataBytesReceived:vector ETV
attr recordingmode vector
attr source appTotalDataBytesReceived
vector 396 SimpleIoTNetwork.humidity2 appTotalInterestsBytesReceived:vector ETV
attr recordingmode vector
attr source appTotalInterestsBytesReceived
vector 397 SimpleIoTNetwork.humidity2 appTotalContentObjsBytesSent:vector ETV
attr recordingmode vector
attr source appTotalContentObjsBytesSent
vector 398 SimpleIoTNetwork.humidity2 appTotalDataBytesSent:vector ETV
attr recordingmode vector
attr source appTotalDataBytesSent
vector 399 SimpleIoTNetwork.humidity2 fwdTotalInterestsBytesReceived:vector ETV
attr recordingmode vector
attr source fwdTotalInterestsBytesReceived
vector 400 SimpleIoTNetwork.humidity2 fwdTotalInterestRtnsBytesReceived:vector ETV
attr recordingmode vector
attr source fwdTotalInterestRtnsBytesReceived
vector 401 SimpleIoTNetwork.humidity2 fwdTotalContentObjsBytesReceived:vector ETV
attr recordingmode vector
attr source fwdTotalContentObjsBytesReceived
vector 402 SimpleIoTNetwork.humidity2 fwdTotalInterestsBytesSent:vector ETV
attr recordingmode vector
attr source fwdTotalInterestsBytesSent
vector 403 SimpleIoTNetwork.humidity2 fwdTotalInterestRtnsBytesSent:vector ETV
attr recordingmode vector
attr source fwdTotalInterestRtnsBytesSent
vector 404 SimpleIoTNetwork.humidity2 fwdTotalContentObjsBytesSent:vector ETV
attr recordingmode vector
attr source fwdTotalContentObjsBytesSent
vector 405 SimpleIoTNetwork.humidity2 fwdCacheSizeBytes:vector ETV
attr recordingmode vector
attr source fwdCacheSizeBytes
vector 406 SimpleIoTNetwork.humidity2 fwdCacheAdditionsBytes:vector ETV
attr recordingmode vector
attr source fwdCacheAdditionsBytes
vector 407 SimpleIoTNetwork.humidity2 fwdCacheRemovalsBytes:vector ETV
attr recordingmode vector
attr source fwdCacheRemovalsBytes
vector 408 SimpleIoTNetwork.humidity2 fwdFIBEntryCount:vector ETV
attr recordingmode vector
attr source fwdFIBEntryCount
vector 409 SimpleIoTNetwork.humidity2 fwdPITEntryCount:vector ETV
attr recordingmode vector
attr source fwdPITEntryCount
vector 410 SimpleIoTNetwork.humidity2 fwdCacheHitRatio:vector ETV
attr recordingmode vector
attr source fwdCacheHitRatio
vector 411 SimpleIoTNetwork.humidity2 fwdCacheMissRatio:vector ETV
attr recordingmode vector
attr source fwdCacheMissRatio
vector 412 SimpleIoTNetwork.humidity2 transportTotalWiredBytesReceived:vector ETV
attr recordingmode vector
attr source transportTotalWiredBytesReceived
vector 413 SimpleIoTNetwork.humidity2 transportTotalWiredBytesSent:vector ETV
attr recordingmode vector
attr source transportTotalWiredBytesSent
vector 414 SimpleIoTNetwork.humidity2 transportTotalWirelessBytesReceived:vector ETV
attr recordingmode vector
attr source transportTotalWirelessBytesReceived
vector 415 SimpleIoTNetwork.humidity2 transportTotalWirelessBytesSent:vector ETV
attr recordingmode vector
attr source transportTotalWirelessBytesSent
vector 416 SimpleIoTNetwork.temperature2 appContentDownloadDuration:vector ETV
attr recordingmode vector
attr source appContentDownloadDuration
vector 417 SimpleIoTNetwork.temperature2 appSegmentDownloadDuration:vector ETV
attr recordingmode vector
attr source appSegmentDownloadDuration
vector 418 SimpleIoTNetwork.temperature2 appTotalInterestsBytesSent:vector ETV
attr recordingmode vector
attr source appTotalInterestsBytesSent
vector 419 SimpleIoTNetwork.temperature2 appRetransmissionInterestsBytesSent:vector ETV
attr recordingmode vector
attr source appRetransmissionInterestsBytesSent
vector 420 SimpleIoTNetwork.temperature2 appTotalContentObjsBytesReceived:vector ETV
attr recordingmode vector
attr source appTotalContentObjsBytesReceived
vector 421 SimpleIoTNetwork.temperature2 appTotalDataBytesReceived:vector ETV
attr recordingmode vector
attr source appTotalDataBytesReceived
vector 422 SimpleIoTNetwork.temperature2 appTotalInterestsBytesReceived:vector ETV
attr recordingmode vector
attr source appTotalInterestsBytesReceived
vector 423 SimpleIoTNetwork.temperature2 appTotalContentObjsBytesSent:vector ETV
attr recordingmode vector
attr source appTotalContentObjsBytesSent
vector 424 SimpleIoTNetwork.temperature2 appTotalDataBytesSent:vector ETV
attr recordingmode vector
attr source appTotalDataBytesSent
vector 425 SimpleIoTNetwork.temperature2 fwdTotalInterestsBytesReceived:vector ETV
attr recordingmode vector
attr source fwdTotalInterestsBytesReceived
vector 426 SimpleIoTNetwork.temperature2 fwdTotalInterestRtnsBytesReceived:vector ETV
attr recordingmode vector
attr source fwdTotalInterestRtnsBytesReceived
vector 427 SimpleIoTNetwork.temperature2 fwdTotalContentObjsBytesReceived:vector ETV
attr recordingmode vector
attr source fwdTotalContentObjsBytesReceived
vector 428 SimpleIoTNetwork.temperature2 fwdTotalInterestsBytesSent:vector ETV
attr recordingmode vector
attr source fwdTotalInterestsBytesSent
vector 429 SimpleIoTNetwork.temperature2 fwdTotalInterestRtnsBytesSent:vector ETV
attr recordingmode vector
attr source fwdTotalInterestRtnsBytesSent
vector 430 SimpleIoTNetwork.temperature2 fwdTotalContentObjsBytesSent:vector ETV
attr recordingmode vector
attr source fwdTotalContentObjsBytesSent
vector 431 SimpleIoTNetwork.temperature2 fwdCacheSizeBytes:vector ETV
attr recordingmode vector
attr source fwdCacheSizeBytes
vector 432 SimpleIoTNetwork.temperature2 fwdCacheAdditionsBytes:vector ETV
attr recordingmode vector
attr source fwdCacheAdditionsBytes
vector 433 SimpleIoTNetwork.temperature2 fwdCacheRemovalsBytes:vector ETV
attr recordingmode vector
attr source fwdCacheRemovalsBytes
vector 434 SimpleIoTNetwork.temperature2 fwdFIBEntryCount:vector ETV
attr recordingmode vector
attr source fwdFIBEntryCount
vector 435 SimpleIoTNetwork.temperature2 fwdPITEntryCount:vector ETV
attr recordingmode vector
attr source fwdPITEntryCount
vector 436 SimpleIoTNetwork.temperature2 fwdCacheHitRatio:vector ETV
attr recordingmode vector
attr source fwdCacheHitRatio
vector 437 SimpleIoTNetwork.temperature2 fwdCacheMissRatio:vector ETV
attr recordingmode vector
attr source fwdCacheMissRatio
vector 438 SimpleIoTNetwork.temperature2 transportTotalWiredBytesReceived:vector ETV
attr recordingmode vector
attr source transportTotalWiredBytesReceived
vector 439 SimpleIoTNetwork.temperature2 transportTotalWiredBytesSent:vector ETV
attr recordingmode vector
attr source transportTotalWiredBytesSent
vector 440 SimpleIoTNetwork.temperature2 transportTotalWirelessBytesReceived:vector ETV
attr recordingmode vector
attr source transportTotalWirelessBytesReceived
vector 441 SimpleIoTNetwork.temperature2 transportTotalWirelessBytesSent:vector ETV
attr recordingmode vector
attr source transportTotalWirelessBytesSent
vector 442 SimpleIoTNetwork.eeAP appContentDownloadDuration:vector ETV
attr recordingmode vector
attr source appContentDownloadDuration
vector 443 SimpleIoTNetwork.eeAP appSegmentDownloadDuration:vector ETV
attr recordingmode vector
attr source appSegmentDownloadDuration
vector 444 SimpleIoTNetwork.eeAP appTotalInterestsBytesSent:vector ETV
attr recordingmode vector
attr source appTotalInterestsBytesSent
vector 445 SimpleIoTNetwork.eeAP appRetransmissionInterestsBytesSent:vector ETV
attr recordingmode vector
attr source appRetransmissionInterestsBytesSent
vector 446 SimpleIoTNetwork.eeAP appTotalContentObjsBytesReceived:vector ETV
attr recordingmode vector
attr source appTotalContentObjsBytesReceived
vector 447 SimpleIoTNetwork.eeAP appTotalDataBytesReceived:vector ETV
attr recordingmode vector
attr source appTotalDataBytesReceived
vector 448 SimpleIoTNetwork.eeAP appTotalInterestsBytesReceived:vector ETV
attr recordingmode vector
attr source appTotalInterestsBytesReceived
vector 449 SimpleIoTNetwork.eeAP appTotalContentObjsBytesSent:vector ETV
attr recordingmode vector
attr source appTotalContentObjsBytesSent
vector 450 SimpleIoTNetwork.eeAP appTotalDataBytesSent:vector ETV
attr recordingmode vector
attr source appTotalDataBytesSent
vector 451 SimpleIoTNetwork.eeAP fwdTotalInterestsBytesReceived:vector ETV
attr recordingmode vector
attr source fwdTotalInterestsBytesReceived
vector 452 SimpleIoTNetwork.eeAP fwdTotalInterestRtnsBytesReceived:vector ETV
attr recordingmode vector
attr source fwdTotalInterestRtnsBytesReceived
vector 453 SimpleIoTNetwork.eeAP fwdTotalContentObjsBytesReceived:vector ETV
attr recordingmode vector
attr source fwdTotalContentObjsBytesReceived
vector 454 SimpleIoTNetwork.eeAP fwdTotalInterestsBytesSent:vector ETV
attr recordingmode vector
attr source fwdTotalInterestsBytesSent
vector 455 SimpleIoTNetwork.eeAP fwdTotalInterestRtnsBytesSent:vector ETV
attr recordingmode vector
attr source fwdTotalInterestRtnsBytesSent
vector 456 SimpleIoTNetwork.eeAP fwdTotalContentObjsBytesSent:vector ETV
attr recordingmode vector
attr source fwdTotalContentObjsBytesSent
vector 457 SimpleIoTNetwork.eeAP fwdCacheSizeBytes:vector ETV
attr recordingmode vector
attr source fwdCacheSizeBytes
vector 458 SimpleIoTNetwork.eeAP fwdCacheAdditionsBytes:vector ETV
attr recordingmode vector
attr source fwdCacheAdditionsBytes
vector 459 SimpleIoTNetwork.eeAP fwdCacheRemovalsBytes:vector ETV
attr recordingmode vector
attr source fwdCacheRemovalsBytes
vector 460 SimpleIoTNetwork.eeAP fwdFIBEntryCount:vector ETV
attr recordingmode vector
attr source fwdFIBEntryCount
vector 461 SimpleIoTNetwork.eeAP fwdPITEntryCount:vector ETV
attr recordingmode vector
attr source fwdPITEntryCount
vector 462 SimpleIoTNetwork.eeAP fwdCacheHitRatio:vector ETV
attr recordingmode vector
attr source fwdCacheHitRatio
vector 463 SimpleIoTNetwork.eeAP fwdCacheMissRatio:vector ETV
attr recordingmode vector
attr source fwdCacheMissRatio
vector 464 SimpleIoTNetwork.eeAP transportTotalWiredBytesReceived:vector ETV
attr recordingmode vector
attr source transportTotalWiredBytesReceived
vector 465 SimpleIoTNetwork.eeAP transportTotalWiredBytesSent:vector ETV
attr recordingmode vector
attr source transportTotalWiredBytesSent
vector 466 SimpleIoTNetwork.eeAP transportTotalWirelessBytesReceived:vector ETV
attr recordingmode vector
attr source transportTotalWirelessBytesReceived
vector 467 SimpleIoTNetwork.eeAP transportTotalWirelessBytesSent:vector ETV
attr recordingmode vector
attr source transportTotalWirelessBytesSent
vector 468 SimpleIoTNetwork.internet appContentDownloadDuration:vector ETV
attr recordingmode vector
attr source appContentDownloadDuration
vector 469 SimpleIoTNetwork.internet appSegmentDownloadDuration:vector ETV
attr recordingmode vector
attr source appSegmentDownloadDuration
vector 470 SimpleIoTNetwork.internet appTotalInterestsBytesSent:vector ETV
attr recordingmode vector
attr source appTotalInterestsBytesSent
vector 471 SimpleIoTNetwork.internet appRetransmissionInterestsBytesSent:vector ETV
attr recordingmode vector
attr source appRetransmissionInterestsBytesSent
vector 472 SimpleIoTNetwork.internet appTotalContentObjsBytesReceived:vector ETV
attr recordingmode vector
attr source appTotalContentObjsBytesReceived
vector 473 SimpleIoTNetwork.internet appTotalDataBytesReceived:vector ETV
attr recordingmode vector
attr source appTotalDataBytesReceived
vector 474 SimpleIoTNetwork.internet appTotalInterestsBytesReceived:vector ETV
attr recordingmode vector
attr source appTotalInterestsBytesReceived
vector 475 SimpleIoTNetwork.internet appTotalContentObjsBytesSent:vector ETV
attr recordingmode vector
attr source appTotalContentObjsBytesSent
vector 476 SimpleIoTNetwork.internet appTotalDataBytesSent:vector ETV
attr recordingmode vector
attr source appTotalDataBytesSent
vector 477 SimpleIoTNetwork.internet fwdTotalInterestsBytesReceived:vector ETV
attr recordingmode vector
attr source fwdTotalInterestsBytesReceived
vector 478 SimpleIoTNetwork.internet fwdTotalInterestRtnsBytesReceived:vector ETV
attr recordingmode vector
attr source fwdTotalInterestRtnsBytesReceived
vector 479 SimpleIoTNetwork.internet fwdTotalContentObjsBytesReceived:vector ETV
attr recordingmode vector
attr source fwdTotalContentObjsBytesReceived
vector 480 SimpleIoTNetwork.internet fwdTotalInterestsBytesSent:vector ETV
attr recordingmode vector
attr source fwdTotalInterestsBytesSent
vector 481 SimpleIoTNetwork.internet fwdTotalInterestRtnsBytesSent:vector ETV
attr recordingmode vector
attr source fwdTotalInterestRtnsBytesSent
vector 482 SimpleIoTNetwork.internet fwdTotalContentObjsBytesSent:vector ETV
attr recordingmode vector
attr source fwdTotalContentObjsBytesSent
vector 483 SimpleIoTNetwork.internet fwdCacheSizeBytes:vector ETV
attr recordingmode vector
attr source fwdCacheSizeBytes
vector 484 SimpleIoTNetwork.internet fwdCacheAdditionsBytes:vector ETV
attr recordingmode vector
attr source fwdCacheAdditionsBytes
vector 485 SimpleIoTNetwork.internet fwdCacheRemovalsBytes:vector ETV
attr recordingmode vector
attr source fwdCacheRemovalsBytes
vector 486 SimpleIoTNetwork.internet fwdFIBEntryCount:vector ETV
attr recordingmode vector
attr source fwdFIBEntryCount
vector 487 SimpleIoTNetwork.internet fwdPITEntryCount:vector ETV
attr recordingmode vector
attr source fwdPITEntryCount
vector 488 SimpleIoTNetwork.internet fwdCacheHitRatio:vector ETV
attr recordingmode vector
attr source fwdCacheHitRatio
vector 489 SimpleIoTNetwork.internet fwdCacheMissRatio:vector ETV
attr recordingmode vector
attr source fwdCacheMissRatio
vector 490 SimpleIoTNetwork.internet transportTotalWiredBytesReceived:vector ETV
attr recordingmode vector
attr source transportTotalWiredBytesReceived
vector 491 SimpleIoTNetwork.internet transportTotalWiredBytesSent:vector ETV
attr recordingmode vector
attr source transportTotalWiredBytesSent
vector 492 SimpleIoTNetwork.internet transportTotalWirelessBytesReceived:vector ETV
attr recordingmode vector
attr source transportTotalWirelessBytesReceived
vector 493 SimpleIoTNetwork.internet transportTotalWirelessBytesSent:vector ETV
attr recordingmode vector
attr source transportTotalWirelessBytesSent
vector 494 SimpleIoTNetwork.zfnRouter appContentDownloadDuration:vector ETV
attr recordingmode vector
attr source appContentDownloadDuration
vector 495 SimpleIoTNetwork.zfnRouter appSegmentDownloadDuration:vector ETV
attr recordingmode vector
attr source appSegmentDownloadDuration
vector 496 SimpleIoTNetwork.zfnRouter appTotalInterestsBytesSent:vector ETV
[...]
306	11473722 51281 210 388680 15.052363636364 34956.757076498002 1702 0 0 0 0
307	11525003 51281 210 388680 15.052363636364 34956.757076498002 1702 1 1 1702 1702
308	11576284 52875 448 388676 30.00000768 34956.757076498002 1698 48 48 81504 3912192
309	11629159 50 462 801 30.00000768 64.636784401695 2 84 84 168 14112
310	11629209 108 206 287 15.052363636364 15.209454545455 4 36 72 216 12960
311	11629317 52933 230 388681 15.052363636364 34956.757076498002 1700 36 44 61216 2204480
321	11682250 52983 212 388655 15.052363636364 34956.757071890002 1702 16 16 27232 435712
323	11735233 54 292 293 15.209454545455 15.209454545455 2 52 52 104 5408
324	11735287 52931 226 388655 15.052363636364 34956.757071890002 1700 16 16 27200 435200
326	11788218 106 224 7389 15.052363636364 185.033309622208 4 24 52 152 6560
327	11788324 161 224 7389 15.052363636364 185.033309622208 6 8 160 448 51744
328	11788485 158 224 7389 15.052363636364 185.033309622208 6 8 36 160 5312
330	11788643 96 93 228 0 15.052363636364 6 1 5 18 64
331	11788739 55476 212 388655 15.052363636364 34956.757071890002 1710 0 1698 1442591 1633343435
332	11844215 51333 212 388655 15.052363636364 34956.757071890002 1704 0 0 0 0
333	11895548 51333 212 388655 15.052363636364 34956.757071890002 1704 1 1 1704 1704
334	11946881 52928 431 388651 30.000004608 34956.757071890002 1700 48 48 81600 3916800
335	11999809 52 486 7390 30.00001152 185.033309622208 2 84 84 168 14112
336	11999861 108 208 289 15.052363636364 15.209454545455 4 36 72 216 12960
337	11999969 52985 234 388657 15.052363636364 34956.757071890002 1702 36 44 61288 2207072
339	12052954 62867 282 488813 15.116363636364 50355 3357 0 0 0 0
342	12115821 66224 282 488813 15.116363636364 50355 3357 24 24 80568 1933632
343	12182045 62867 282 488813 15.116363636364 50355 3357 8 8 26856 214848
344	12244912 27 254 254 15.104727272728 15.104727272728 1 16 16 16 256
345	12244939 27 254 254 15.104727272728 15.104727272728 1 52 52 52 2704
346	12244966 27 254 254 15.104727272728 15.104727272728 1 36 36 36 1296
347	12244993 53036 246 388756 15.104727272728 34956.809440134366 1698 16 16 27168 434688
349	12298029 54 274 276 15.116363636364 15.116363636364 2 24 24 48 1152
350	12298083 14 196 196 15 15 1 16 16 16 256
352	12298097 27 258 258 15.104727272728 15.104727272728 1 52 52 52 2704
353	12298124 81 258 276 15.104727272728 15.116363636364 3 36 52 132 5936
354	12298205 79 258 276 15.104727272728 15.116363636364 3 8 36 52 1424
356	12298284 22 96 97 0 0 2 1 2 3 5
357	12298306 55387 196 388756 15 34956.809440134366 1701 1 1697 1440761 1630452163
358	12353693 188692 196 488807 15 50355 5055 0 0.66666666666667 1877.6524201961 873.93511531521
359	12542385 188693 196 488807 15 50355 5055 0.33333333333333 1 3177.3475798039 2173.6302749231
362	12731078 53090 238 388754 15.104727272728 34956.809440134366 1700 36 44 61216 2204480
363	12784168 41 202 262 15 15.104727272728 2 36 72 108 6480
365	12784209 62867 283 488814 15.116363636364 50355 3357 0 0 0 0
368	12847076 66224 283 488814 15.116363636364 50355 3357 24 24 80568 1933632
369	12913300 62867 283 488814 15.116363636364 50355 3357 8 8 26856 214848
370	12976167 27 255 255 15.104727272728 15.104727272728 1 16 16 16 256
371	12976194 27 255 255 15.104727272728 15.104727272728 1 52 52 52 2704
372	12976221 27 255 255 15.104727272728 15.104727272728 1 36 36 36 1296
373	12976248 53036 247 388757 15.104727272728 34956.809440134366 1698 16 16 27168 434688
375	13029284 54 275 277 15.116363636364 15.116363636364 2 24 24 48 1152
376	13029338 14 197 197 15 15 1 16 16 16 256
378	13029352 27 259 259 15.104727272728 15.104727272728 1 52 52 52 2704
379	13029379 81 259 277 15.104727272728 15.116363636364 3 36 52 132 5936
380	13029460 79 259 277 15.104727272728 15.116363636364 3 8 36 52 1424
382	13029539 22 98 99 0 0 2 1 2 3 5
383	13029561 55387 197 388757 15 34956.809440134366 1701 1 1697 1440761 1630452163
384	13084948 188692 197 488808 15 50355 5055 0 0.66666666666667 1877.6524201961 873.93511531521
385	13273640 188693 197 488808 15 50355 5055 0.33333333333333 1 3177.3475798039 2173.6302749231
388	13462333 53090 239 388755 15.104727272728 34956.809440134366 1700 36 44 61216 2204480
389	13515423 41 203 263 15 15.104727272728 2 36 72 108 6480
391	13515464 62867 284 488815 15.116363636364 50355 3357 0 0 0 0
394	13578331 66224 284 488815 15.116363636364 50355 3357 24 24 80568 1933632
395	13644555 62867 284 488815 15.116363636364 50355 3357 8 8 26856 214848
396	13707422 27 256 256 15.104727272728 15.104727272728 1 16 16 16 256
397	13707449 27 256 256 15.104727272728 15.104727272728 1 52 52 52 2704
398	13707476 27 256 256 15.104727272728 15.104727272728 1 36 36 36 1296
399	13707503 53090 250 388752 15.104727272728 34956.809435526366 1700 16 16 27200 435200
401	13760593 54 278 280 15.116363636364 15.116363636364 2 24 24 48 1152
402	13760647 14 198 198 15 15 1 16 16 16 256
404	13760661 27 260 260 15.104727272728 15.104727272728 1 52 52 52 2704
405	13760688 81 260 280 15.104727272728 15.116363636364 3 36 52 132 5936
406	13760769 79 260 280 15.104727272728 15.116363636364 3 8 36 52 1424
408	13760848 24 100 101 0 0 2 1 2 3 5
409	13760872 55445 198 388752 15 34956.809435526366 1703 1 1699 1444158 1636221968
410	13816317 188677 198 488809 15 50355 5057 0 0.66363456594819 1874.838956414 871.73896171493
411	14004994 188675 198 488809 15 50355 5057 0.33636543405181 1 3182.161043586 2179.0610488869
414	14193669 53144 242 388750 15.104727272728 34956.809435526366 1702 36 44 61288 2207072
415	14246813 41 204 264 15 15.104727272728 2 36 72 108 6480
417	14246854 62867 285 488816 15.116363636364 50355 3357 0 0 0 0
420	14309721 66224 285 488816 15.116363636364 50355 3357 24 24 80568 1933632
421	14375945 62867 285 488816 15.116363636364 50355 3357 8 8 26856 214848
422	14438812 27 257 257 15.104727272728 15.104727272728 1 16 16 16 256
423	14438839 27 257 257 15.104727272728 15.104727272728 1 52 52 52 2704
424	14438866 27 257 257 15.104727272728 15.104727272728 1 36 36 36 1296
425	14438893 53090 251 388753 15.104727272728 34956.809435526366 1700 16 16 27200 435200
427	14491983 54 279 281 15.116363636364 15.116363636364 2 24 24 48 1152
428	14492037 14 199 199 15 15 1 16 16 16 256
430	14492051 27 261 261 15.104727272728 15.104727272728 1 52 52 52 2704
431	14492078 81 261 281 15.104727272728 15.116363636364 3 36 52 132 5936
432	14492159 79 261 281 15.104727272728 15.116363636364 3 8 36 52 1424
434	14492238 24 102 103 0 0 2 1 2 3 5
435	14492262 55445 199 388753 15 34956.809435526366 1703 1 1699 1444158 1636221968
436	14547707 188677 199 488810 15 50355 5057 0 0.66363456594819 1874.838956414 871.73896171493
437	14736384 188675 199 488810 15 50355 5057 0.33636543405181 1 3182.161043586 2179.0610488869
440	14925059 53144 243 388751 15.104727272728 34956.809435526366 1702 36 44 61288 2207072
441	14978203 41 205 265 15 15.104727272728 2 36 72 108 6480
451	14978244 52878 436 388664 30.000004608 34956.757072658002 1698 16 16 27168 434688
453	15031122 7122 2961 119852 122.902321864024 3086.226393492484 218 1016 1016 221488 225031808
454	15038244 52878 436 388664 30.000004608 34956.757072658002 1698 16 16 27168 434688
456	15091122 7122 2961 119852 122.902321864024 3086.226393492484 218 1016 1016 221488 225031808
457	15098244 7450 2961 119852 122.902321864024 3086.226393492484 218 1000 218000 23871000 3477209000000
458	15105694 7122 2961 119852 122.902321864024 3086.226393492484 218 1000 1000 218000 218000000
460	15112816 24 104 105 0 0 2 1 1 2 2
461	15112840 61815 436 388664 30.000004608 34956.757072658002 1916 1 1480 1270600 1176706838
462	15174655 51180 436 388664 30.000004608 34956.757072658002 1698 0 0 0 0
463	15225835 51180 436 388664 30.000004608 34956.757072658002 1698 1 1 1698 1698
464	15277015 53314 427 388661 30.000004608 34956.757072658002 1698 48 1048 299504 242840192
465	15330329 6686 2896 119787 122.902225416024 3086.226297044484 218 48 48 10464 502272
466	15337015 6686 2894 119785 122.902225416024 3086.226297044484 218 48 48 10464 502272
467	15343701 53314 440 388668 30.000004608 34956.757072658002 1698 48 1048 299504 242840192
470	15397015 46512 369 488591 30 50319.997136443882 1427 16 16 22832 365312
472	15443527 46522 512 488593 30.000022464 50319.997136443882 1427 52 52 74204 3858608
473	15490049 46522 512 488593 30.000022464 50319.997136443882 1427 36 36 51372 1849392
474	15536571 39321 3582 388645 130.357433089207 34956.757068818002 1254 16 16 20064 321024
475	15575892 41829 3582 388645 130.357433089207 34956.757068818002 1254 1016 1016 1274064 1294449024
476	15617721 41829 3582 388645 130.357433089207 34956.757068818002 1254 1000 1000 1254000 1254000000
477	15659550 52879 476 388641 30.000008448 34956.757068818002 1698 16 16 27168 434688
479	15712429 51 511 816 30.000022464 64.636799185695 2 52 52 104 5408
480	15712480 41 379 742 30 64.636775953695 2 16 16 32 512
482	15712521 41829 3583 388646 130.357433089207 34956.757068818002 1254 1016 1016 1274064 1294449024
483	15754350 44535 511 388646 30.000022464 34956.757068818002 1256 36 1254072 786975396 6.5821147294722e+14
484	15798885 41880 511 388646 30.000022464 34956.757068818002 1256 36 1000 1254072 1254002592
486	15840765 24 107 108 0 0 2 1 2 3 5
487	15840789 94865 379 388646 30 34956.757068818002 2954 0 443 949885 364407649
488	15935654 143600 379 488592 30 50319.997136443882 3125 0 0.456 553.0047612694 151.36357185325
489	16079254 142199 379 488592 30 50319.997136443882 3125 0.544 1 2571.9952387306 2170.3540493145
490	16221453 52930 472 388638 30.000008448 34956.757068818002 1700 48 84 81672 3926304
491	16274383 41870 388 388647 30 34956.757068818002 1256 48 1048 1314288 1377277824
503	16316253 52929 396 388633 30.000000384 34956.757068434002 1700 16 16 27200 435200
505	16369182 41879 507 388684 30.000021792 34956.757077202002 1256 52 1016 1274168 1294454432
506	16411061 105858 396 388633 30.000000384 34956.757068434002 3400 16 16 54400 870400
508	16516919 41879 507 388684 30.000021792 34956.757077202002 1256 52 1016 1274168 1294454432
509	16558798 44534 507 388684 30.000021792 34956.757077202002 1256 36 1254072 786975396 6.5821147294722e+14
510	16603332 41879 507 388684 30.000021792 34956.757077202002 1256 36 1000 1254072 1254002592
512	16645211 36 109 111 0 0 3 1 1 3 3
513	16645247 94928 396 388684 30.000000384 34956.757077202002 2956 1 445 955722 368215074
514	16740175 51229 396 388633 30.000000384 34956.757068434002 1700 0 0 0 0
515	16791404 51229 396 388633 30.000000384 34956.757068434002 1700 1 1 1700 1700
516	16842633 94808 394 388682 30.000000384 34956.757077202002 2956 48 1048 1395960 1381204128
517	16937441 147737 397 388685 30.000000384 34956.757077202002 4656 48 1048 1477560 1385120928
529	17085178 52929 420 388656 30.00000384 34956.757071890002 1700 16 16 27200 435200
531	17138107 52 515 7397 30.00002496 185.033323062208 2 52 52 104 5408
532	17138159 52929 420 388656 30.00000384 34956.757071890002 1700 16 16 27200 435200
534	17191088 52 515 7397 30.00002496 185.033323062208 2 52 52 104 5408
535	17191140 52 515 7397 30.00002496 185.033323062208 2 36 72 108 6480
536	17191192 52 515 7397 30.00002496 185.033323062208 2 36 36 72 2592
538	17191244 24 112 113 0 0 2 1 1 2 2
539	17191268 55268 420 388656 30.00000384 34956.757071890002 1702 1 1698 1442581 1633343419
540	17246536 51229 420 388656 30.00000384 34956.757071890002 1700 0 0 0 0
541	17297765 51229 420 388656 30.00000384 34956.757071890002 1700 1 1 1700 1700
542	17348994 52980 417 388653 30.00000384 34956.757071890002 1702 48 84 81768 3930912
543	17401974 52981 424 388658 30.00000384 34956.757071890002 1702 48 84 81768 3930912
548	17454955 46992 370 488688 30 50335.071563569371 1441 16 16 23056 368896
550	17501947 47001 523 488690 30.00003168 50335.071563569371 1441 52 52 74932 3896464
551	17548948 47001 523 488690 30.00003168 50335.071563569371 1441 36 36 51876 1867536
555	17595949 52877 474 388671 30.000008448 34956.757075730002 1698 16 16 27168 434688
557	17648826 52 522 7401 30.00003168 185.033329782208 2 52 52 104 5408
558	17648878 43 380 7357 30 185.033298102208 2 16 16 32 512
561	17648921 52 522 7401 30.00003168 185.033329782208 2 36 72 108 6480
562	17648973 52 522 7401 30.00003168 185.033329782208 2 36 36 72 2592
564	17649025 12 115 115 0 0 1 1 1 1 1
565	17649037 55259 380 388671 30 34956.757075730002 1702 1 1698 1442581 1633343419
566	17704296 144301 380 488689 30 50335.071563569371 3139 0 0.45842625039822 561.61686145653 154.82044777942
567	17848597 142874 380 488689 30 50335.071563569371 3139 0.54157374960178 1 2577.3831385435 2170.5867248664
568	17991471 52929 468 388669 30.000008448 34956.757075730002 1700 48 84 81672 3926304
569	18044400 43 389 7358 30 185.033298102208 2 48 48 96 4608
572	18044443 26404 125947 488822 3436.085742706912 50356.085742706912 783 1 783 306936 160322904
573	18070847 1291241 177465 488834 7080 50357.231740340128 30854 0.093357433348396 0.40816069912923 7550.8580235587 2150.664523377
574	19362088 1290225 177465 488834 7080 50357.231740340128 30854 0.59183930087077 0.9066425666516 23303.141976441 17902.948476259
573	20652313 1338264 488836 864296 50357.231740340128 108240 32768 0.40817000141458 0.59087042224297 16780.995626844 8682.9290368916
574	21990577 1338266 488836 864296 50357.231740340128 108240 32768 0.40912957775703 0.59182999858542 15987.004373156 7888.9377832036
573	23328843 1387631 864297 1239349 108240 166058.719671843375 32768 0.59087278121855 0.68067018690286 20977.223732798 13450.82151511
574	24716474 1387628 864297 1239349 108240 166058.719671843375 32768 0.31932981309714 0.40912721878145 11790.776267202 4264.374049514
54	26104102 33643 488886 1282948 50365.870780918602 172765.870780918602 1021 16 16 16336 261376
55	26137745 33643 488886 1282948 50365.870780918602 172765.870780918602 1021 16 16 16336 261376
72	26171388 48760 488887 1282949 50365.870780918602 172765.870780918602 1021 0.032649253731343 0.047814207650273 40.097819604414 1.5939963658679
73	26220148 47728 488887 1282949 50365.870780918602 172765.870780918602 1021 0.95218579234973 0.96735074626866 980.90218039559 942.39835715704
80	26267876 114004 489078 1283146 50397.329991450556 172790.654219095593 3472 16 16 55552 888832
82	26381880 56585 489080 1282957 50397.329991450556 172766.661149910649 1724 52 52 89648 4661696
83	26438465 56585 489080 1282957 50397.329991450556 172766.661149910649 1724 36 36 62064 2234304
98	26495050 162105 489079 1283147 50397.329991450556 172790.654219095593 3472 0.22798092209857 0.36904221516114 1100.1051584231 353.86884119262
99	26657155 162105 489079 1283147 50397.329991450556 172790.654219095593 3472 0.63095778483886 0.77201907790143 2371.8948415769 1625.6585243463
104	26819260 32306 488845 1283187 50357.231740340128 172793.207773474052 984 0 0 0 0
105	26851566 405252 488837 1283187 50357.231740340128 172793.207773474052 12341 0 0 0 0
106	27256818 417593 488835 1283185 50357.231740340128 172793.207773474052 12341 16 16 197456 3159296
108	27674411 442310 488835 1283187 50357.231740340128 172793.207773474052 12342 1016 1016 12539472 12740103552
109	28116721 442310 488835 1283187 50357.231740340128 172793.207773474052 12342 1000 1000 12342000 12342000000
124	28559031 588715 488836 1283186 50357.231740340128 172793.207773474052 12341 0.80846882258353 0.94023526788203 11092.38575955 9985.0452775272
125	29147746 595964 488836 1283186 50357.231740340128 172793.207773474052 12341 0.059764732117968 0.19153117741647 1248.6142404498 141.27375842675
130	29743710 32067 489343 1283125 50433.781090099145 172786.728499119439 977 0 0 0 0
131	29775777 391416 489307 1283125 50433.781090099145 172786.728499119439 11924 0 0 0 0
132	30167193 403340 489305 1283123 50433.781090099145 172786.728499119439 11924 16 16 190784 3052544
134	30570533 427188 489307 1283125 50433.781090099145 172786.728499119439 11924 1016 1016 12114784 12308620544
135	30997721 427188 489307 1283125 50433.781090099145 172786.728499119439 11924 1000 1000 11924000 11924000000
150	31424909 568699 489306 1283124 50433.781090099145 172786.728499119439 11924 0.7995146537241 0.93784722222222 10666.058253803 9556.7077160563
151	31993608 575265 489306 1283124 50433.781090099145 172786.728499119439 11924 0.062152777777778 0.2004853462759 1257.9417461974 148.59120845118
158	32568873 34631 489606 1282901 50476.085742706912 172756.085742706912 1020 16 16 16320 261120
159	32603504 34631 489606 1282901 50476.085742706912 172756.085742706912 1020 16 16 16320 261120
176	32638135 49779 489607 1282902 50476.085742706912 172756.085742706912 1020 0.016750948166877 0.024708624708625 20.62169767403 0.42220244456893
177	32687914 48772 489607 1282902 50476.085742706912 172756.085742706912 1020 0.97529137529138 0.98324905183312 999.37830232597 979.17880709651
339	32736686 162862 488924 1283231 50370 172800 8163 0 0 0 0
342	32899548 171025 488924 1283231 50370 172800 8163 24 24 195912 4701888
343	33070573 162862 488924 1283231 50370 172800 8163 8 8 65304 522432
358	33233435 284360 488918 1283225 50370 172800 8163 0.66396360759494 0.87146315630201 6530.0221161877 5249.6506902312
359	33517795 284360 488918 1283225 50370 172800 8163 0.12853684369799 0.33603639240506 1632.9778838124 352.60645785593
365	33802155 162862 488925 1283232 50370 172800 8163 0 0 0 0
368	33965017 171025 488925 1283232 50370 172800 8163 24 24 195912 4701888
369	34136042 162862 488925 1283232 50370 172800 8163 8 8 65304 522432
384	34298904 284360 488919 1283226 50370 172800 8163 0.66396360759494 0.87146315630201 6530.0221161877 5249.6506902312
385	34583264 284360 488919 1283226 50370 172800 8163 0.12853684369799 0.33603639240506 1632.9778838124 352.60645785593
391	34867624 162862 488926 1283233 50370 172800 8163 0 0 0 0
394	35030486 171025 488926 1283233 50370 172800 8163 24 24 195912 4701888
395	35201511 162862 488926 1283233 50370 172800 8163 8 8 65304 522432
410	35364373 283877 488920 1283227 50370 172800 8163 0.66370106761566 0.87133131618759 6528.5152852773 5247.2744531944
411	35648250 283876 488920 1283227 50370 172800 8163 0.12866868381241 0.33629893238434 1634.4847147227 353.24388263987
417	35932126 162862 488927 1283234 50370 172800 8163 0 0 0 0
420	36094988 171025 488927 1283234 50370 172800 8163 24 24 195912 4701888
421	36266013 162862 488927 1283234 50370 172800 8163 8 8 65304 522432
436	36428875 283877 488921 1283228 50370 172800 8163 0.66370106761566 0.87133131618759 6528.5152852773 5247.2744531944
437	36712752 283876 488921 1283228 50370 172800 8163 0.12866868381241 0.33629893238434 1634.4847147227 353.24388263987
470	36996628 118413 488908 1282866 50369.829302146128 172752.460669686551 3501 16 16 56016 896256
472	37115041 118413 488910 1282868 50369.829302146128 172752.460669686551 3501 52 52 182052 9466704
473	37233454 118413 488910 1282868 50369.829302146128 172752.460669686551 3501 36 36 126036 4537296
488	37351867 166968 488909 1282867 50369.829302146128 172752.460669686551 3501 0.45617402431222 0.74343495321461 2223.4797710248 1434.4839214536
489	37518835 166968 488909 1282867 50369.829302146128 172752.460669686551 3501 0.25656504678539 0.54382597568778 1277.5202289752 488.52437940396
548	37685803 118267 488973 1283077 50379.715872295209 172785.972503847488 3495 16 16 55920 894720
550	37804070 118267 488975 1283079 50379.715872295209 172785.972503847488 3495 52 52 181740 9450480
551	37922337 118267 488975 1283079 50379.715872295209 172785.972503847488 3495 36 36 125820 4529520
566	38040604 166739 488974 1283078 50379.715872295209 172785.972503847488 3495 0.45859872611465 0.74374434730178 2223.0264213593 1435.9798037945
567	38207343 166739 488974 1283078 50379.715872295209 172785.972503847488 3495 0.25625565269822 0.54140127388535 1271.9735786407 484.92696107595
572	38374082 73161 488886 1282948 50365.870780918602 172765.870780918602 2041 784 2824 3681964 7350775796
573	38447243 166591 1239351 1283228 166058.719671843375 172800 3890 0.68067265928042 0.68851091335458 2663.342178748 1823.5138055579
574	38613834 166592 1239351 1283228 166058.719671843375 172800 3890 0.31148908664542 0.31932734071958 1226.657821252 386.82944806194

