version 3
run Simple-IoT-Net-0-20250612-17:51:36-9559
attr configname Simple-IoT-Net
attr datetime 20250612-17:51:36
attr datetimef 20250612-175136
attr experiment Simple-IoT-Net
attr inifile omnetpp-simple-iot-network.ini
attr iterationvars ""
attr iterationvarsd ""
attr iterationvarsf ""
attr measurement ""
attr network SimpleIoTNetwork
attr processid 9559
attr repetition 0
attr replication #0
attr resultdir results/
attr runnumber 0
attr seedset 0
config image-path ../../inet4.5/images
config **.internet.internetNumWiredTransports 1
config **.internet.numApps 2
config **.internet.app[0].typename ThingsApp
config **.internet.app[0].sensorDataRetrievalStartTime 30s
config **.internet.app[0].interDataDownloadInterval uniform(20s,50s)
config **.internet.app[0].requestedSensorNetworkPrefixName "\"ccnx://uhb.de/ee/iot/\""
config **.internet.app[0].interestLifetime 8s
config **.internet.app[0].sensorDataNames "\"temperature;humidity\""
config **.internet.app[0].nextIndexOfSensorDataToRetrieve "intuniform(0, 1)"
config **.internet.app[0].maxSensorDataReadingsToKeep 100
config **.internet.app[0].maxHopsAllowed 10
config **.internet.app[1].typename ContentHostApp
config **.internet.app[1].hostedPrefixNames "\"ccnx://uhb.de/cs/admin/\""
config **.internet.app[1].dataNamePrefix "\"infpo\""
config **.internet.app[1].segmentSize 1000byte
config **.internet.app[1].numSegmentsPerFile "intuniform(5, 20)"
config **.internet.app[1].cacheTime 2h
config **.zfnRouter.coreRouterNumWiredTransports 3
config **.eeCoreRouter.coreRouterNumWiredTransports 4
config **.eeContentServer.numApps 1
config **.eeContentServer.app[0].typename ContentHostApp
config **.eeContentServer.app[0].hostedPrefixNames "\"ccnx://uhb.de/ee/admin/\""
config **.eeContentServer.app[0].dataNamePrefix "\"etpo\""
config **.eeContentServer.app[0].segmentSize 1000byte
config **.eeContentServer.app[0].numSegmentsPerFile "intuniform(5, 20)"
config **.eeContentServer.app[0].cacheTime 2h
config **.eeRouter.accessRouterNumWiredTransports 4
config **.frank.numApps 1
config **.frank.app[0].typename ContentDownloadApp
config **.frank.app[0].interContentDownloadInterval "uniform(100.0s, 150.0s)"
config **.frank.app[0].requestedPrefixNames "\"ccnx://uhb.de/ee/admin/\""
config **.frank.app[0].dataNamePrefix "\"etpo\""
config **.frank.app[0].interestRetransmitTimeout 120s
config **.frank.app[0].nextFileSuffix "intuniform(0, 99)"
config **.eeManagement.numApps 1
config **.eeManagement.app[0].typename ThingsApp
config **.eeManagement.app[0].sensorDataRetrievalStartTime 30s
config **.eeManagement.app[0].interDataDownloadInterval uniform(20s,50s)
config **.eeManagement.app[0].requestedSensorNetworkPrefixName "\"ccnx://uhb.de/ee/iot/\""
config **.eeManagement.app[0].interestLifetime 8s
config **.eeManagement.app[0].sensorDataNames "\"temperature;humidity\""
config **.eeManagement.app[0].nextIndexOfSensorDataToRetrieve "intuniform(0, 1)"
config **.eeManagement.app[0].maxSensorDataReadingsToKeep 100
config **.eeManagement.app[0].maxHopsAllowed 5
config **.eeAP.wlanWirelessRange 80m
config **.peter.numApps 1
config **.peter.app[0].typename ContentDownloadApp
config **.peter.app[0].interContentDownloadInterval "uniform(100.0s, 150.0s)"
config **.peter.app[0].requestedPrefixNames "\"ccnx://uhb.de/ee/admin/\""
config **.peter.app[0].dataNamePrefix "\"etpo\""
config **.peter.app[0].interestRetransmitTimeout 120s
config **.peter.app[0].nextFileSuffix "intuniform(0, 99)"
config **.peter.btWirelessRange 60m
config **.peter.wlanWirelessRange 80m
config **.eeIoTGW.numApps 1
config **.eeIoTGW.app[0].typename IoTGatewayApp
config **.eeIoTGW.app[0].hostedPrefixName "\"ccnx://uhb.de/ee/iot/\""
config **.eeIoTGW.app[0].hostedPrefixNameForSensorNet "\"ccnx://uhb.de/ee/gw/\""
config **.eeIoTGW.app[0].sensorPrefixName "\"ccnx://uhb.de/ee/sensornet/\""
config **.eeIoTGW.app[0].interestLifetime 3s
config **.eeIoTGW.app[0].maximumSensorReadingsToKeep 100
config **.eeIoTGW.iotGatewayLoRaWirelessRange 100m
config **.temperature1.numApps 1
config **.temperature1.app[0].typename SensingApp
config **.temperature1.app[0].sensorPrefixName "\"ccnx://uhb.de/ee/sensornet/\""
config **.temperature1.app[0].gwPrefixName "\"ccnx://uhb.de/ee/gw/\""
config **.temperature1.app[0].interestLifetime 3s
config **.temperature1.app[0].segmentSize 36byte
config **.temperature1.app[0].numSegmentsPerFile 1
config **.temperature1.app[0].cacheTime 800s
config **.temperature1.app[0].sensedDataTypes "\"temperature\""
config **.temperature1.app[0].temperature "uniform(20.0, 23.0)"
config **.temperature1.app[0].wakeupInterval 15s
config **.humidity1.numApps 1
config **.humidity1.app[0].typename SensingApp
config **.humidity1.app[0].sensorPrefixName "\"ccnx://uhb.de/ee/sensornet/\""
config **.humidity1.app[0].gwPrefixName "\"ccnx://uhb.de/ee/gw/\""
config **.humidity1.app[0].interestLifetime 3s
config **.humidity1.app[0].segmentSize 36byte
config **.humidity1.app[0].numSegmentsPerFile 1
config **.humidity1.app[0].cacheTime 800s
config **.humidity1.app[0].sensedDataTypes "\"humidity\""
config **.humidity1.app[0].humidity "uniform(50.0, 70.0)"
config **.humidity1.app[0].wakeupInterval 15s
config **.csCoreRouter.coreRouterNumWiredTransports 5
config **.csContentServer.numApps 1
config **.csContentServer.app[0].typename ContentHostApp
config **.csContentServer.app[0].hostedPrefixNames "\"ccnx://uhb.de/cs/admin/\""
config **.csContentServer.app[0].dataNamePrefix "\"infpo\""
config **.csContentServer.app[0].segmentSize 1000byte
config **.csContentServer.app[0].numSegmentsPerFile "intuniform(5, 20)"
config **.csContentServer.app[0].cacheTime 2h
config **.csRouter.accessRouterNumWiredTransports 2
config **.csManagement.numApps 1
config **.csManagement.app[0].typename ThingsApp
config **.csManagement.app[0].sensorDataRetrievalStartTime 30s
config **.csManagement.app[0].interDataDownloadInterval uniform(20s,50s)
config **.csManagement.app[0].requestedSensorNetworkPrefixName "\"ccnx://uhb.de/cs/iot/\""
config **.csManagement.app[0].interestLifetime 8s
config **.csManagement.app[0].sensorDataNames "\"temperature;humidity\""
config **.csManagement.app[0].nextIndexOfSensorDataToRetrieve "intuniform(0, 1)"
config **.csManagement.app[0].maxSensorDataReadingsToKeep 100
config **.csManagement.app[0].maxHopsAllowed 5
config **.csAP.wlanWirelessRange 80m
config **.silvia.numApps 1
config **.silvia.app[0].typename ContentDownloadApp
config **.silvia.app[0].interContentDownloadInterval "uniform(100.0s, 150.0s)"
config **.silvia.app[0].requestedPrefixNames "\"ccnx://uhb.de/cs/admin/\""
config **.silvia.app[0].dataNamePrefix "\"infpo\""
config **.silvia.app[0].interestRetransmitTimeout 120s
config **.silvia.app[0].nextFileSuffix "intuniform(0, 99)"
config **.silvia.btWirelessRange 60m
config **.silvia.wlanWirelessRange 80m
config **.daniel.numApps 1
config **.daniel.app[0].typename ContentDownloadApp
config **.daniel.app[0].interContentDownloadInterval "uniform(100.0s, 150.0s)"
config **.daniel.app[0].requestedPrefixNames "\"ccnx://uhb.de/cs/admin/\""
config **.daniel.app[0].dataNamePrefix "\"infpo\""
config **.daniel.app[0].interestRetransmitTimeout 120s
config **.daniel.app[0].nextFileSuffix "intuniform(0, 99)"
config **.daniel.btWirelessRange 60m
config **.daniel.wlanWirelessRange 80m
config **.csIoTGW.numApps 1
config **.csIoTGW.app[0].typename IoTGatewayApp
config **.csIoTGW.app[0].hostedPrefixName "\"ccnx://uhb.de/cs/iot/\""
config **.csIoTGW.app[0].hostedPrefixNameForSensorNet "\"ccnx://uhb.de/cs/gw/\""
config **.csIoTGW.app[0].sensorPrefixName "\"ccnx://uhb.de/cs/sensornet/\""
config **.csIoTGW.app[0].interestLifetime 3s
config **.csIoTGW.app[0].maximumSensorReadingsToKeep 100
config **.csIoTGW.iotGatewayLoRaWirelessRange 100m
config **.temperature2.numApps 1
config **.temperature2.app[0].typename SensingApp
config **.temperature2.app[0].sensorPrefixName "\"ccnx://uhb.de/cs/sensornet/\""
config **.temperature2.app[0].gwPrefixName "\"ccnx://uhb.de/cs/gw/\""
config **.temperature2.app[0].interestLifetime 3s
config **.temperature2.app[0].segmentSize 36byte
config **.temperature2.app[0].numSegmentsPerFile 1
config **.temperature2.app[0].cacheTime 800s
config **.temperature2.app[0].sensedDataTypes "\"temperature\""
config **.temperature2.app[0].temperature "uniform(20.0, 23.0)"
config **.temperature2.app[0].wakeupInterval 15s
config **.humidity2.numApps 1
config **.humidity2.app[0].typename SensingApp
config **.humidity2.app[0].sensorPrefixName "\"ccnx://uhb.de/cs/sensornet/\""
config **.humidity2.app[0].gwPrefixName "\"ccnx://uhb.de/cs/gw/\""
config **.humidity2.app[0].interestLifetime 3s
config **.humidity2.app[0].segmentSize 36byte
config **.humidity2.app[0].numSegmentsPerFile 1
config **.humidity2.app[0].cacheTime 800s
config **.humidity2.app[0].sensedDataTypes "\"humidity\""
config **.humidity2.app[0].humidity "uniform(50.0, 70.0)"
config **.humidity2.app[0].wakeupInterval 15s
config **.constraintAreaMinX 0m
config **.constraintAreaMinY 0m
config **.constraintAreaMinZ 0m
config **.constraintAreaMaxX 700m
config **.constraintAreaMaxY 400m
config **.constraintAreaMaxZ 0m
config **.updateInterval 1s
config **.initFromDisplayString true
config network SimpleIoTNetwork
config sim-time-limit 48h
config repeat 1
config num-rngs 8
config seed-0-mt 1000
config seed-1-mt 2000
config seed-2-mt 3000
config seed-3-mt 4000
config seed-4-mt 5000
config seed-5-mt 6000
config seed-6-mt 7000
config seed-7-mt 8000
config **.deus.rng-0 1
config **.numen.rng-0 2
config **.app[*].rng-0 3
config **.fwd.rng-0 4
config **.wired[*].rng-0 5
config **.wireless[*].rng-0 6
config **.mobility.rng-0 7
config result-dir results/
config output-vector-file results//omnetpp-simple-iot-network.ini-Simple-IoT-Net-0.vec
config output-scalar-file results//omnetpp-simple-iot-network.ini-Simple-IoT-Net-0.sca
config **.vector-recording true
config **.scalar-recording true
config **.statistic-recording true
config record-eventlog false
config eventlog-file results//omnetpp-simple-iot-network.ini-Simple-IoT-Net-0.elog

par SimpleIoTNetwork.frank.wiredInOut$o[0].channel typename "\"ned.DatarateChannel\""
par SimpleIoTNetwork.frank.wiredInOut$o[0].channel disabled false
attr mutable ""
par SimpleIoTNetwork.frank.wiredInOut$o[0].channel delay 0s
attr mutable ""
attr unit s
par SimpleIoTNetwork.frank.wiredInOut$o[0].channel datarate 1e+08bps
attr mutable ""
attr unit bps
par SimpleIoTNetwork.frank.wiredInOut$o[0].channel ber 0
attr mutable ""
par SimpleIoTNetwork.frank.wiredInOut$o[0].channel per 0
attr mutable ""
par SimpleIoTNetwork.eeRouter.wiredInOut$o[0].channel typename "\"ned.DatarateChannel\""
par SimpleIoTNetwork.eeRouter.wiredInOut$o[0].channel disabled false
attr mutable ""
par SimpleIoTNetwork.eeRouter.wiredInOut$o[0].channel delay 0s
attr mutable ""
attr unit s
par SimpleIoTNetwork.eeRouter.wiredInOut$o[0].channel datarate 1e+08bps
attr mutable ""
attr unit bps
par SimpleIoTNetwork.eeRouter.wiredInOut$o[0].channel ber 0
attr mutable ""
par SimpleIoTNetwork.eeRouter.wiredInOut$o[0].channel per 0
attr mutable ""
par SimpleIoTNetwork.eeManagement.wiredInOut$o[0].channel typename "\"ned.DatarateChannel\""
par SimpleIoTNetwork.eeManagement.wiredInOut$o[0].channel disabled false
attr mutable ""
par SimpleIoTNetwork.eeManagement.wiredInOut$o[0].channel delay 0s
attr mutable ""
attr unit s
par SimpleIoTNetwork.eeManagement.wiredInOut$o[0].channel datarate 1e+08bps
attr mutable ""
attr unit bps
par SimpleIoTNetwork.eeManagement.wiredInOut$o[0].channel ber 0
attr mutable ""
par SimpleIoTNetwork.eeManagement.wiredInOut$o[0].channel per 0
attr mutable ""
par SimpleIoTNetwork.eeRouter.wiredInOut$o[1].channel typename "\"ned.DatarateChannel\""
par SimpleIoTNetwork.eeRouter.wiredInOut$o[1].channel disabled false
attr mutable ""
par SimpleIoTNetwork.eeRouter.wiredInOut$o[1].channel delay 0s
attr mutable ""
attr unit s
par SimpleIoTNetwork.eeRouter.wiredInOut$o[1].channel datarate 1e+08bps
attr mutable ""
attr unit bps
par SimpleIoTNetwork.eeRouter.wiredInOut$o[1].channel ber 0
attr mutable ""
par SimpleIoTNetwork.eeRouter.wiredInOut$o[1].channel per 0
attr mutable ""
par SimpleIoTNetwork.eeRouter.wiredInOut$o[2].channel typename "\"ned.DatarateChannel\""
par SimpleIoTNetwork.eeRouter.wiredInOut$o[2].channel disabled false
attr mutable ""
par SimpleIoTNetwork.eeRouter.wiredInOut$o[2].channel delay 0s
attr mutable ""
attr unit s
par SimpleIoTNetwork.eeRouter.wiredInOut$o[2].channel datarate 1e+08bps
attr mutable ""
attr unit bps
par SimpleIoTNetwork.eeRouter.wiredInOut$o[2].channel ber 0
attr mutable ""
par SimpleIoTNetwork.eeRouter.wiredInOut$o[2].channel per 0
attr mutable ""
par SimpleIoTNetwork.eeCoreRouter.wiredInOut$o[0].channel typename "\"ned.DatarateChannel\""
par SimpleIoTNetwork.eeCoreRouter.wiredInOut$o[0].channel disabled false
attr mutable ""
par SimpleIoTNetwork.eeCoreRouter.wiredInOut$o[0].channel delay 0s
attr mutable ""
attr unit s
par SimpleIoTNetwork.eeCoreRouter.wiredInOut$o[0].channel datarate 1e+08bps
attr mutable ""
attr unit bps
par SimpleIoTNetwork.eeCoreRouter.wiredInOut$o[0].channel ber 0
attr mutable ""
par SimpleIoTNetwork.eeCoreRouter.wiredInOut$o[0].channel per 0
attr mutable ""
par SimpleIoTNetwork.eeAP.wiredInOut$o[0].channel typename "\"ned.DatarateChannel\""
par SimpleIoTNetwork.eeAP.wiredInOut$o[0].channel disabled false
attr mutable ""
par SimpleIoTNetwork.eeAP.wiredInOut$o[0].channel delay 0s
attr mutable ""
attr unit s
par SimpleIoTNetwork.eeAP.wiredInOut$o[0].channel datarate 1e+08bps
attr mutable ""
attr unit bps
par SimpleIoTNetwork.eeAP.wiredInOut$o[0].channel ber 0
attr mutable ""
par SimpleIoTNetwork.eeAP.wiredInOut$o[0].channel per 0
attr mutable ""
par SimpleIoTNetwork.eeCoreRouter.wiredInOut$o[1].channel typename "\"ned.DatarateChannel\""
par SimpleIoTNetwork.eeCoreRouter.wiredInOut$o[1].channel disabled false
attr mutable ""
par SimpleIoTNetwork.eeCoreRouter.wiredInOut$o[1].channel delay 0s
attr mutable ""
attr unit s
par SimpleIoTNetwork.eeCoreRouter.wiredInOut$o[1].channel datarate 1e+08bps
attr mutable ""
attr unit bps
par SimpleIoTNetwork.eeCoreRouter.wiredInOut$o[1].channel ber 0
attr mutable ""
par SimpleIoTNetwork.eeCoreRouter.wiredInOut$o[1].channel per 0
attr mutable ""
par SimpleIoTNetwork.csAP.wiredInOut$o[0].channel typename "\"ned.DatarateChannel\""
par SimpleIoTNetwork.csAP.wiredInOut$o[0].channel disabled false
attr mutable ""
par SimpleIoTNetwork.csAP.wiredInOut$o[0].channel delay 0s
attr mutable ""
attr unit s
par SimpleIoTNetwork.csAP.wiredInOut$o[0].channel datarate 1e+08bps
attr mutable ""
attr unit bps
par SimpleIoTNetwork.csAP.wiredInOut$o[0].channel ber 0
attr mutable ""
par SimpleIoTNetwork.csAP.wiredInOut$o[0].channel per 0
attr mutable ""
par SimpleIoTNetwork.csCoreRouter.wiredInOut$o[0].channel typename "\"ned.DatarateChannel\""
par SimpleIoTNetwork.csCoreRouter.wiredInOut$o[0].channel disabled false
attr mutable ""
par SimpleIoTNetwork.csCoreRouter.wiredInOut$o[0].channel delay 0s
attr mutable ""
attr unit s
par SimpleIoTNetwork.csCoreRouter.wiredInOut$o[0].channel datarate 1e+08bps
attr mutable ""
attr unit bps
par SimpleIoTNetwork.csCoreRouter.wiredInOut$o[0].channel ber 0
attr mutable ""
par SimpleIoTNetwork.csCoreRouter.wiredInOut$o[0].channel per 0
attr mutable ""
par SimpleIoTNetwork.eeCoreRouter.wiredInOut$o[2].channel typename "\"ned.DatarateChannel\""
par SimpleIoTNetwork.eeCoreRouter.wiredInOut$o[2].channel disabled false
attr mutable ""
par SimpleIoTNetwork.eeCoreRouter.wiredInOut$o[2].channel delay 0s
attr mutable ""
attr unit s
par SimpleIoTNetwork.eeCoreRouter.wiredInOut$o[2].channel datarate 1e+09bps
attr mutable ""
attr unit bps
par SimpleIoTNetwork.eeCoreRouter.wiredInOut$o[2].channel ber 0
attr mutable ""
par SimpleIoTNetwork.eeCoreRouter.wiredInOut$o[2].channel per 0
attr mutable ""
par SimpleIoTNetwork.eeContentServer.wiredInOut$o[0].channel typename "\"ned.DatarateChannel\""
par SimpleIoTNetwork.eeContentServer.wiredInOut$o[0].channel disabled false
attr mutable ""
par SimpleIoTNetwork.eeContentServer.wiredInOut$o[0].channel delay 0s
attr mutable ""
attr unit s
par SimpleIoTNetwork.eeContentServer.wiredInOut$o[0].channel datarate 1e+09bps
attr mutable ""
attr unit bps
par SimpleIoTNetwork.eeContentServer.wiredInOut$o[0].channel ber 0
attr mutable ""
par SimpleIoTNetwork.eeContentServer.wiredInOut$o[0].channel per 0
attr mutable ""
par SimpleIoTNetwork.csCoreRouter.wiredInOut$o[1].channel typename "\"ned.DatarateChannel\""
par SimpleIoTNetwork.csCoreRouter.wiredInOut$o[1].channel disabled false
attr mutable ""
par SimpleIoTNetwork.csCoreRouter.wiredInOut$o[1].channel delay 0s
attr mutable ""
attr unit s
par SimpleIoTNetwork.csCoreRouter.wiredInOut$o[1].channel datarate 1e+06bps
attr mutable ""
attr unit bps
par SimpleIoTNetwork.csCoreRouter.wiredInOut$o[1].channel ber 0
attr mutable ""
par SimpleIoTNetwork.csCoreRouter.wiredInOut$o[1].channel per 0
attr mutable ""
par SimpleIoTNetwork.csContentServer.wiredInOut$o[0].channel typename "\"ned.DatarateChannel\""
par SimpleIoTNetwork.csContentServer.wiredInOut$o[0].channel disabled false
attr mutable ""
par SimpleIoTNetwork.csContentServer.wiredInOut$o[0].channel delay 0s
attr mutable ""
attr unit s
par SimpleIoTNetwork.csContentServer.wiredInOut$o[0].channel datarate 1e+06bps
attr mutable ""
attr unit bps
par SimpleIoTNetwork.csContentServer.wiredInOut$o[0].channel ber 0
attr mutable ""
par SimpleIoTNetwork.csContentServer.wiredInOut$o[0].channel per 0
attr mutable ""
par SimpleIoTNetwork.eeIoTGW.wiredInOut$o[0].channel typename "\"ned.DatarateChannel\""
par SimpleIoTNetwork.eeIoTGW.wiredInOut$o[0].channel disabled false
attr mutable ""
par SimpleIoTNetwork.eeIoTGW.wiredInOut$o[0].channel delay 0s
attr mutable ""
attr unit s
par SimpleIoTNetwork.eeIoTGW.wiredInOut$o[0].channel datarate 1e+08bps
attr mutable ""
attr unit bps
par SimpleIoTNetwork.eeIoTGW.wiredInOut$o[0].channel ber 0
attr mutable ""
par SimpleIoTNetwork.eeIoTGW.wiredInOut$o[0].channel per 0
attr mutable ""
par SimpleIoTNetwork.eeRouter.wiredInOut$o[3].channel typename "\"ned.DatarateChannel\""
par SimpleIoTNetwork.eeRouter.wiredInOut$o[3].channel disabled false
attr mutable ""
par SimpleIoTNetwork.eeRouter.wiredInOut$o[3].channel delay 0s
attr mutable ""
attr unit s
par SimpleIoTNetwork.eeRouter.wiredInOut$o[3].channel datarate 1e+08bps
attr mutable ""
attr unit bps
par SimpleIoTNetwork.eeRouter.wiredInOut$o[3].channel ber 0
attr mutable ""
par SimpleIoTNetwork.eeRouter.wiredInOut$o[3].channel per 0
attr mutable ""
par SimpleIoTNetwork.csIoTGW.wiredInOut$o[0].channel typename "\"ned.DatarateChannel\""
par SimpleIoTNetwork.csIoTGW.wiredInOut$o[0].channel disabled false
attr mutable ""
par SimpleIoTNetwork.csIoTGW.wiredInOut$o[0].channel delay 0s
attr mutable ""
attr unit s
par SimpleIoTNetwork.csIoTGW.wiredInOut$o[0].channel datarate 1e+08bps
attr mutable ""
attr unit bps
par SimpleIoTNetwork.csIoTGW.wiredInOut$o[0].channel ber 0
attr mutable ""
par SimpleIoTNetwork.csIoTGW.wiredInOut$o[0].channel per 0
attr mutable ""
par SimpleIoTNetwork.csCoreRouter.wiredInOut$o[2].channel typename "\"ned.DatarateChannel\""
par SimpleIoTNetwork.csCoreRouter.wiredInOut$o[2].channel disabled false
attr mutable ""
par SimpleIoTNetwork.csCoreRouter.wiredInOut$o[2].channel delay 0s
attr mutable ""
attr unit s
par SimpleIoTNetwork.csCoreRouter.wiredInOut$o[2].channel datarate 1e+08bps
attr mutable ""
attr unit bps
par SimpleIoTNetwork.csCoreRouter.wiredInOut$o[2].channel ber 0
attr mutable ""
par SimpleIoTNetwork.csCoreRouter.wiredInOut$o[2].channel per 0
attr mutable ""
par SimpleIoTNetwork.eeCoreRouter.wiredInOut$o[3].channel typename "\"ned.DatarateChannel\""
par SimpleIoTNetwork.eeCoreRouter.wiredInOut$o[3].channel disabled false
attr mutable ""
par SimpleIoTNetwork.eeCoreRouter.wiredInOut$o[3].channel delay 0s
attr mutable ""
attr unit s
par SimpleIoTNetwork.eeCoreRouter.wiredInOut$o[3].channel datarate 1e+09bps
attr mutable ""
attr unit bps
par SimpleIoTNetwork.eeCoreRouter.wiredInOut$o[3].channel ber 0
attr mutable ""
par SimpleIoTNetwork.eeCoreRouter.wiredInOut$o[3].channel per 0
attr mutable ""
par SimpleIoTNetwork.zfnRouter.wiredInOut$o[0].channel typename "\"ned.DatarateChannel\""
par SimpleIoTNetwork.zfnRouter.wiredInOut$o[0].channel disabled false
attr mutable ""
par SimpleIoTNetwork.zfnRouter.wiredInOut$o[0].channel delay 0s
attr mutable ""
attr unit s
par SimpleIoTNetwork.zfnRouter.wiredInOut$o[0].channel datarate 1e+09bps
attr mutable ""
attr unit bps
par SimpleIoTNetwork.zfnRouter.wiredInOut$o[0].channel ber 0
attr mutable ""
par SimpleIoTNetwork.zfnRouter.wiredInOut$o[0].channel per 0
attr mutable ""
par SimpleIoTNetwork.csCoreRouter.wiredInOut$o[3].channel typename "\"ned.DatarateChannel\""
par SimpleIoTNetwork.csCoreRouter.wiredInOut$o[3].channel disabled false
attr mutable ""
par SimpleIoTNetwork.csCoreRouter.wiredInOut$o[3].channel delay 0s
attr mutable ""
attr unit s
par SimpleIoTNetwork.csCoreRouter.wiredInOut$o[3].channel datarate 1e+09bps
attr mutable ""
attr unit bps
par SimpleIoTNetwork.csCoreRouter.wiredInOut$o[3].channel ber 0
attr mutable ""
par SimpleIoTNetwork.csCoreRouter.wiredInOut$o[3].channel per 0
attr mutable ""
par SimpleIoTNetwork.zfnRouter.wiredInOut$o[1].channel typename "\"ned.DatarateChannel\""
par SimpleIoTNetwork.zfnRouter.wiredInOut$o[1].channel disabled false
attr mutable ""
par SimpleIoTNetwork.zfnRouter.wiredInOut$o[1].channel delay 0s
attr mutable ""
attr unit s
par SimpleIoTNetwork.zfnRouter.wiredInOut$o[1].channel datarate 1e+09bps
attr mutable ""
attr unit bps
par SimpleIoTNetwork.zfnRouter.wiredInOut$o[1].channel ber 0
attr mutable ""
par SimpleIoTNetwork.zfnRouter.wiredInOut$o[1].channel per 0
attr mutable ""
par SimpleIoTNetwork.zfnRouter.wiredInOut$o[2].channel typename "\"ned.DatarateChannel\""
par SimpleIoTNetwork.zfnRouter.wiredInOut$o[2].channel disabled false
attr mutable ""
par SimpleIoTNetwork.zfnRouter.wiredInOut$o[2].channel delay 0s
attr mutable ""
attr unit s
par SimpleIoTNetwork.zfnRouter.wiredInOut$o[2].channel datarate 1e+09bps
attr mutable ""
attr unit bps
par SimpleIoTNetwork.zfnRouter.wiredInOut$o[2].channel ber 0
attr mutable ""
par SimpleIoTNetwork.zfnRouter.wiredInOut$o[2].channel per 0
attr mutable ""
par SimpleIoTNetwork.internet.wiredInOut$o[0].channel typename "\"ned.DatarateChannel\""
par SimpleIoTNetwork.internet.wiredInOut$o[0].channel disabled false
attr mutable ""
par SimpleIoTNetwork.internet.wiredInOut$o[0].channel delay 0s
attr mutable ""
attr unit s
par SimpleIoTNetwork.internet.wiredInOut$o[0].channel datarate 1e+09bps
attr mutable ""
attr unit bps
par SimpleIoTNetwork.internet.wiredInOut$o[0].channel ber 0
attr mutable ""
par SimpleIoTNetwork.internet.wiredInOut$o[0].channel per 0
attr mutable ""
par SimpleIoTNetwork.csManagement.wiredInOut$o[0].channel typename "\"ned.DatarateChannel\""
par SimpleIoTNetwork.csManagement.wiredInOut$o[0].channel disabled false
attr mutable ""
par SimpleIoTNetwork.csManagement.wiredInOut$o[0].channel delay 0s
attr mutable ""
attr unit s
par SimpleIoTNetwork.csManagement.wiredInOut$o[0].channel datarate 1e+08bps
attr mutable ""
attr unit bps
par SimpleIoTNetwork.csManagement.wiredInOut$o[0].channel ber 0
attr mutable ""
par SimpleIoTNetwork.csManagement.wiredInOut$o[0].channel per 0
attr mutable ""
par SimpleIoTNetwork.csRouter.wiredInOut$o[0].channel typename "\"ned.DatarateChannel\""
par SimpleIoTNetwork.csRouter.wiredInOut$o[0].channel disabled false
attr mutable ""
par SimpleIoTNetwork.csRouter.wiredInOut$o[0].channel delay 0s
attr mutable ""
attr unit s
par SimpleIoTNetwork.csRouter.wiredInOut$o[0].channel datarate 1e+08bps
attr mutable ""
attr unit bps
par SimpleIoTNetwork.csRouter.wiredInOut$o[0].channel ber 0
attr mutable ""
par SimpleIoTNetwork.csRouter.wiredInOut$o[0].channel per 0
attr mutable ""
par SimpleIoTNetwork.csRouter.wiredInOut$o[1].channel typename "\"ned.DatarateChannel\""
par SimpleIoTNetwork.csRouter.wiredInOut$o[1].channel disabled false
attr mutable ""
par SimpleIoTNetwork.csRouter.wiredInOut$o[1].channel delay 0s
attr mutable ""
attr unit s
par SimpleIoTNetwork.csRouter.wiredInOut$o[1].channel datarate 1e+08bps
attr mutable ""
attr unit bps
par SimpleIoTNetwork.csRouter.wiredInOut$o[1].channel ber 0
attr mutable ""
par SimpleIoTNetwork.csRouter.wiredInOut$o[1].channel per 0
attr mutable ""
par SimpleIoTNetwork.csCoreRouter.wiredInOut$o[4].channel typename "\"ned.DatarateChannel\""
par SimpleIoTNetwork.csCoreRouter.wiredInOut$o[4].channel disabled false
attr mutable ""
par SimpleIoTNetwork.csCoreRouter.wiredInOut$o[4].channel delay 0s
attr mutable ""
attr unit s
par SimpleIoTNetwork.csCoreRouter.wiredInOut$o[4].channel datarate 1e+08bps
attr mutable ""
attr unit bps
par SimpleIoTNetwork.csCoreRouter.wiredInOut$o[4].channel ber 0
attr mutable ""
par SimpleIoTNetwork.csCoreRouter.wiredInOut$o[4].channel per 0
attr mutable ""
par SimpleIoTNetwork.eeRouter.numen typename "\"inbaversim.Numen\""
par SimpleIoTNetwork.eeRouter.fwd typename "\"inbaversim.RFC8569Forwarder\""
par SimpleIoTNetwork.eeRouter.fwd maximumContentStoreSize 0byte
attr unit byte
par SimpleIoTNetwork.eeRouter.wired[0] typename "\"inbaversim.WiredTransport\""
par SimpleIoTNetwork.eeRouter.wired[0] wiredTechnology "\"Ethernet\""
par SimpleIoTNetwork.eeRouter.wired[0] dataRate 1e+06bps
attr unit bps
par SimpleIoTNetwork.eeRouter.wired[0] packetErrorRate 0pct
attr unit pct
par SimpleIoTNetwork.eeRouter.wired[0] headerSize 32byte
attr unit byte
par SimpleIoTNetwork.eeRouter.wired[1] typename "\"inbaversim.WiredTransport\""
par SimpleIoTNetwork.eeRouter.wired[1] wiredTechnology "\"Ethernet\""
par SimpleIoTNetwork.eeRouter.wired[1] dataRate 1e+06bps
attr unit bps
par SimpleIoTNetwork.eeRouter.wired[1] packetErrorRate 0pct
attr unit pct
par SimpleIoTNetwork.eeRouter.wired[1] headerSize 32byte
attr unit byte
par SimpleIoTNetwork.eeRouter.wired[2] typename "\"inbaversim.WiredTransport\""
par SimpleIoTNetwork.eeRouter.wired[2] wiredTechnology "\"Ethernet\""
par SimpleIoTNetwork.eeRouter.wired[2] dataRate 1e+06bps
attr unit bps
par SimpleIoTNetwork.eeRouter.wired[2] packetErrorRate 0pct
attr unit pct
par SimpleIoTNetwork.eeRouter.wired[2] headerSize 32byte
attr unit byte
par SimpleIoTNetwork.eeRouter.wired[3] typename "\"inbaversim.WiredTransport\""
par SimpleIoTNetwork.eeRouter.wired[3] wiredTechnology "\"Ethernet\""
par SimpleIoTNetwork.eeRouter.wired[3] dataRate 1e+06bps
attr unit bps
par SimpleIoTNetwork.eeRouter.wired[3] packetErrorRate 0pct
attr unit pct
par SimpleIoTNetwork.eeRouter.wired[3] headerSize 32byte
attr unit byte
par SimpleIoTNetwork.eeRouter.mob typename "\"inet.mobility.static.StationaryMobility\""
par SimpleIoTNetwork.eeRouter.mob subjectModule "\"^\""
par SimpleIoTNetwork.eeRouter.mob coordinateSystemModule "\"\""
par SimpleIoTNetwork.eeRouter.mob displayStringTextFormat "\"p: %p\\nv: %v\""
attr mutable ""
par SimpleIoTNetwork.eeRouter.mob updateDisplayString true
par SimpleIoTNetwork.eeRouter.mob constraintAreaMinX 0m
attr unit m
par SimpleIoTNetwork.eeRouter.mob constraintAreaMinY 0m
attr unit m
par SimpleIoTNetwork.eeRouter.mob constraintAreaMinZ 0m
attr unit m
par SimpleIoTNetwork.eeRouter.mob constraintAreaMaxX 700m
attr unit m
par SimpleIoTNetwork.eeRouter.mob constraintAreaMaxY 400m
attr unit m
par SimpleIoTNetwork.eeRouter.mob constraintAreaMaxZ 0m
attr unit m
par SimpleIoTNetwork.eeRouter.mob initialX 457.513m
attr unit m
par SimpleIoTNetwork.eeRouter.mob initialY 82.2087m
attr unit m
par SimpleIoTNetwork.eeRouter.mob initialZ 0m
attr unit m
par SimpleIoTNetwork.eeRouter.mob initialLatitude "nan deg"
attr unit deg
par SimpleIoTNetwork.eeRouter.mob initialLongitude "nan deg"
attr unit deg
par SimpleIoTNetwork.eeRouter.mob initialAltitude 0m
attr unit m
par SimpleIoTNetwork.eeRouter.mob initialHeading 0deg
attr unit deg
par SimpleIoTNetwork.eeRouter.mob initialElevation 0deg
attr unit deg
par SimpleIoTNetwork.eeRouter.mob initialBank 0deg
attr unit deg
par SimpleIoTNetwork.eeRouter.mob initFromDisplayString true
par SimpleIoTNetwork.eeRouter.mob updateFromDisplayString true
par SimpleIoTNetwork.eeRouter typename "\"inbaversim.AccessRouter\""
par SimpleIoTNetwork.eeRouter numApps 0
par SimpleIoTNetwork.eeRouter numWiredTransports 4
par SimpleIoTNetwork.eeRouter numWirelessTransports 0
par SimpleIoTNetwork.eeRouter accessRouterNumWiredTransports 4
par SimpleIoTNetwork.eeRouter accessRouterNumWirelessTransports 0
par SimpleIoTNetwork.eeRouter forwarder "\"RFC8569Forwarder\""
par SimpleIoTNetwork.eeRouter ethDataRate 1e+06bps
attr unit bps
par SimpleIoTNetwork.eeRouter ethPacketErrorRate 0pct
attr unit pct
par SimpleIoTNetwork.eeRouter mobility "\"StationaryMobility\""
scalar SimpleIoTNetwork.eeRouter transportTotalWirelessBytesSent:count 0
attr recordingmode count
attr source transportTotalWirelessBytesSent
scalar SimpleIoTNetwork.eeRouter transportTotalWirelessBytesSent:mean -nan
attr recordingmode mean
attr source transportTotalWirelessBytesSent
scalar SimpleIoTNetwork.eeRouter transportTotalWirelessBytesSent:sum 0
attr recordingmode sum
attr source transportTotalWirelessBytesSent
scalar SimpleIoTNetwork.eeRouter transportTotalWirelessBytesReceived:count 0
attr recordingmode count
attr source transportTotalWirelessBytesReceived
scalar SimpleIoTNetwork.eeRouter transportTotalWirelessBytesReceived:mean -nan
attr recordingmode mean
attr source transportTotalWirelessBytesReceived
scalar SimpleIoTNetwork.eeRouter transportTotalWirelessBytesReceived:sum 0
attr recordingmode sum
attr source transportTotalWirelessBytesReceived
scalar SimpleIoTNetwork.eeRouter transportTotalWiredBytesSent:count 5321
attr recordingmode count
attr source transportTotalWiredBytesSent
scalar SimpleIoTNetwork.eeRouter transportTotalWiredBytesSent:mean 90.117647058824
attr recordingmode mean
attr source transportTotalWiredBytesSent
scalar SimpleIoTNetwork.eeRouter transportTotalWiredBytesSent:sum 479516
attr recordingmode sum
attr source transportTotalWiredBytesSent
scalar SimpleIoTNetwork.eeRouter transportTotalWiredBytesReceived:count 1926
attr recordingmode count
attr source transportTotalWiredBytesReceived
scalar SimpleIoTNetwork.eeRouter transportTotalWiredBytesReceived:mean 164.35929387331
attr recordingmode mean
attr source transportTotalWiredBytesReceived
scalar SimpleIoTNetwork.eeRouter transportTotalWiredBytesReceived:sum 316556
attr recordingmode sum
attr source transportTotalWiredBytesReceived
scalar SimpleIoTNetwork.eeRouter fwdCacheMissRatio:min 1
attr recordingmode min
attr source fwdCacheMissRatio
scalar SimpleIoTNetwork.eeRouter fwdCacheMissRatio:max 1
attr recordingmode max
attr source fwdCacheMissRatio
scalar SimpleIoTNetwork.eeRouter fwdCacheMissRatio:count 1699
attr recordingmode count
attr source fwdCacheMissRatio
scalar SimpleIoTNetwork.eeRouter fwdCacheMissRatio:last 1
attr recordingmode last
attr source fwdCacheMissRatio
scalar SimpleIoTNetwork.eeRouter fwdCacheHitRatio:min 0
attr recordingmode min
attr source fwdCacheHitRatio
scalar SimpleIoTNetwork.eeRouter fwdCacheHitRatio:max 0
attr recordingmode max
attr source fwdCacheHitRatio
scalar SimpleIoTNetwork.eeRouter fwdCacheHitRatio:count 1699
attr recordingmode count
attr source fwdCacheHitRatio
scalar SimpleIoTNetwork.eeRouter fwdCacheHitRatio:last 0
attr recordingmode last
attr source fwdCacheHitRatio
scalar SimpleIoTNetwork.eeRouter fwdPITEntryCount:min 0
attr recordingmode min
attr source fwdPITEntryCount
scalar SimpleIoTNetwork.eeRouter fwdPITEntryCount:max 1472
attr recordingmode max
attr source fwdPITEntryCount
scalar SimpleIoTNetwork.eeRouter fwdPITEntryCount:count 1924
attr recordingmode count
attr source fwdPITEntryCount
scalar SimpleIoTNetwork.eeRouter fwdPITEntryCount:mean 658.13825363825
attr recordingmode mean
attr source fwdPITEntryCount
scalar SimpleIoTNetwork.eeRouter fwdPITEntryCount:timeavg 1433.7041638861
attr recordingmode timeavg
attr source fwdPITEntryCount
scalar SimpleIoTNetwork.eeRouter fwdPITEntryCount:last 1472
attr recordingmode last
attr source fwdPITEntryCount
scalar SimpleIoTNetwork.eeRouter fwdFIBEntryCount:min 1
attr recordingmode min
attr source fwdFIBEntryCount
scalar SimpleIoTNetwork.eeRouter fwdFIBEntryCount:max 1
attr recordingmode max
attr source fwdFIBEntryCount
scalar SimpleIoTNetwork.eeRouter fwdFIBEntryCount:count 4
attr recordingmode count
attr source fwdFIBEntryCount
scalar SimpleIoTNetwork.eeRouter fwdFIBEntryCount:mean 1
attr recordingmode mean
attr source fwdFIBEntryCount
scalar SimpleIoTNetwork.eeRouter fwdFIBEntryCount:timeavg 1
attr recordingmode timeavg
attr source fwdFIBEntryCount
scalar SimpleIoTNetwork.eeRouter fwdFIBEntryCount:last 1
attr recordingmode last
attr source fwdFIBEntryCount
scalar SimpleIoTNetwork.eeRouter fwdCacheRemovalsBytes:count 0
attr recordingmode count
attr source fwdCacheRemovalsBytes
scalar SimpleIoTNetwork.eeRouter fwdCacheRemovalsBytes:mean -nan
attr recordingmode mean
attr source fwdCacheRemovalsBytes
scalar SimpleIoTNetwork.eeRouter fwdCacheRemovalsBytes:sum 0
attr recordingmode sum
attr source fwdCacheRemovalsBytes
scalar SimpleIoTNetwork.eeRouter fwdCacheAdditionsBytes:count 226
attr recordingmode count
attr source fwdCacheAdditionsBytes
scalar SimpleIoTNetwork.eeRouter fwdCacheAdditionsBytes:mean 991.46902654867
attr recordingmode mean
attr source fwdCacheAdditionsBytes
scalar SimpleIoTNetwork.eeRouter fwdCacheAdditionsBytes:sum 224072
attr recordingmode sum
attr source fwdCacheAdditionsBytes
scalar SimpleIoTNetwork.eeRouter fwdCacheSizeBytes:min 36
attr recordingmode min
attr source fwdCacheSizeBytes
scalar SimpleIoTNetwork.eeRouter fwdCacheSizeBytes:max 224072
attr recordingmode max
attr source fwdCacheSizeBytes
scalar SimpleIoTNetwork.eeRouter fwdCacheSizeBytes:count 226
attr recordingmode count
attr source fwdCacheSizeBytes
scalar SimpleIoTNetwork.eeRouter fwdCacheSizeBytes:mean 111576.26548673
attr recordingmode mean
attr source fwdCacheSizeBytes
scalar SimpleIoTNetwork.eeRouter fwdCacheSizeBytes:timeavg 222273.03372631
attr recordingmode timeavg
attr source fwdCacheSizeBytes
scalar SimpleIoTNetwork.eeRouter fwdCacheSizeBytes:last 224072
attr recordingmode last
attr source fwdCacheSizeBytes
scalar SimpleIoTNetwork.eeRouter fwdTotalContentObjsBytesSent:count 227
attr recordingmode count
attr source fwdTotalContentObjsBytesSent
scalar SimpleIoTNetwork.eeRouter fwdTotalContentObjsBytesSent:mean 1003.2599118943
attr recordingmode mean
attr source fwdTotalContentObjsBytesSent
scalar SimpleIoTNetwork.eeRouter fwdTotalContentObjsBytesSent:sum 227740
attr recordingmode sum
attr source fwdTotalContentObjsBytesSent
scalar SimpleIoTNetwork.eeRouter fwdTotalInterestRtnsBytesSent:count 0
attr recordingmode count
attr source fwdTotalInterestRtnsBytesSent
scalar SimpleIoTNetwork.eeRouter fwdTotalInterestRtnsBytesSent:mean -nan
attr recordingmode mean
attr source fwdTotalInterestRtnsBytesSent
scalar SimpleIoTNetwork.eeRouter fwdTotalInterestRtnsBytesSent:sum 0
attr recordingmode sum
attr source fwdTotalInterestRtnsBytesSent
scalar SimpleIoTNetwork.eeRouter fwdTotalInterestsBytesSent:count 5094
attr recordingmode count
attr source fwdTotalInterestsBytesSent
scalar SimpleIoTNetwork.eeRouter fwdTotalInterestsBytesSent:mean 16
attr recordingmode mean
attr source fwdTotalInterestsBytesSent
scalar SimpleIoTNetwork.eeRouter fwdTotalInterestsBytesSent:sum 81504
attr recordingmode sum
attr source fwdTotalInterestsBytesSent
scalar SimpleIoTNetwork.eeRouter fwdTotalContentObjsBytesReceived:count 227
attr recordingmode count
attr source fwdTotalContentObjsBytesReceived
scalar SimpleIoTNetwork.eeRouter fwdTotalContentObjsBytesReceived:mean 1003.2599118943
attr recordingmode mean
attr source fwdTotalContentObjsBytesReceived
scalar SimpleIoTNetwork.eeRouter fwdTotalContentObjsBytesReceived:sum 227740
attr recordingmode sum
attr source fwdTotalContentObjsBytesReceived
scalar SimpleIoTNetwork.eeRouter fwdTotalInterestRtnsBytesReceived:count 0
attr recordingmode count
attr source fwdTotalInterestRtnsBytesReceived
scalar SimpleIoTNetwork.eeRouter fwdTotalInterestRtnsBytesReceived:mean -nan
attr recordingmode mean
attr source fwdTotalInterestRtnsBytesReceived
scalar SimpleIoTNetwork.eeRouter fwdTotalInterestRtnsBytesReceived:sum 0
attr recordingmode sum
attr source fwdTotalInterestRtnsBytesReceived
scalar SimpleIoTNetwork.eeRouter fwdTotalInterestsBytesReceived:count 1699
attr recordingmode count
attr source fwdTotalInterestsBytesReceived
scalar SimpleIoTNetwork.eeRouter fwdTotalInterestsBytesReceived:mean 16
attr recordingmode mean
attr source fwdTotalInterestsBytesReceived
scalar SimpleIoTNetwork.eeRouter fwdTotalInterestsBytesReceived:sum 27184
attr recordingmode sum
attr source fwdTotalInterestsBytesReceived
scalar SimpleIoTNetwork.eeRouter appTotalDataBytesSent:count 0
attr recordingmode count
attr source appTotalDataBytesSent
scalar SimpleIoTNetwork.eeRouter appTotalDataBytesSent:mean -nan
attr recordingmode mean
attr source appTotalDataBytesSent
scalar SimpleIoTNetwork.eeRouter appTotalDataBytesSent:sum 0
attr recordingmode sum
attr source appTotalDataBytesSent
scalar SimpleIoTNetwork.eeRouter appTotalContentObjsBytesSent:count 0
attr recordingmode count
attr source appTotalContentObjsBytesSent
scalar SimpleIoTNetwork.eeRouter appTotalContentObjsBytesSent:mean -nan
attr recordingmode mean
attr source appTotalContentObjsBytesSent
scalar SimpleIoTNetwork.eeRouter appTotalContentObjsBytesSent:sum 0
attr recordingmode sum
attr source appTotalContentObjsBytesSent
scalar SimpleIoTNetwork.eeRouter appTotalInterestsBytesReceived:count 0
attr recordingmode count
attr source appTotalInterestsBytesReceived
scalar SimpleIoTNetwork.eeRouter appTotalInterestsBytesReceived:mean -nan
attr recordingmode mean
attr source appTotalInterestsBytesReceived
scalar SimpleIoTNetwork.eeRouter appTotalInterestsBytesReceived:sum 0
attr recordingmode sum
attr source appTotalInterestsBytesReceived
scalar SimpleIoTNetwork.eeRouter appTotalDataBytesReceived:count 0
attr recordingmode count
attr source appTotalDataBytesReceived
scalar SimpleIoTNetwork.eeRouter appTotalDataBytesReceived:mean -nan
attr recordingmode mean
attr source appTotalDataBytesReceived
scalar SimpleIoTNetwork.eeRouter appTotalDataBytesReceived:sum 0
attr recordingmode sum
attr source appTotalDataBytesReceived
scalar SimpleIoTNetwork.eeRouter appTotalContentObjsBytesReceived:count 0
attr recordingmode count
attr source appTotalContentObjsBytesReceived
scalar SimpleIoTNetwork.eeRouter appTotalContentObjsBytesReceived:mean -nan
attr recordingmode mean
attr source appTotalContentObjsBytesReceived
scalar SimpleIoTNetwork.eeRouter appTotalContentObjsBytesReceived:sum 0
attr recordingmode sum
attr source appTotalContentObjsBytesReceived
scalar SimpleIoTNetwork.eeRouter appRetransmissionInterestsBytesSent:count 0
attr recordingmode count
attr source appRetransmissionInterestsBytesSent
scalar SimpleIoTNetwork.eeRouter appRetransmissionInterestsBytesSent:mean -nan
attr recordingmode mean
attr source appRetransmissionInterestsBytesSent
scalar SimpleIoTNetwork.eeRouter appRetransmissionInterestsBytesSent:sum 0
attr recordingmode sum
attr source appRetransmissionInterestsBytesSent
scalar SimpleIoTNetwork.eeRouter appTotalInterestsBytesSent:count 0
attr recordingmode count
attr source appTotalInterestsBytesSent
scalar SimpleIoTNetwork.eeRouter appTotalInterestsBytesSent:mean -nan
attr recordingmode mean
attr source appTotalInterestsBytesSent
scalar SimpleIoTNetwork.eeRouter appTotalInterestsBytesSent:sum 0
attr recordingmode sum
attr source appTotalInterestsBytesSent
scalar SimpleIoTNetwork.eeRouter appSegmentDownloadDuration:min -nan
attr recordingmode min
attr source appSegmentDownloadDuration
scalar SimpleIoTNetwork.eeRouter appSegmentDownloadDuration:max -nan
attr recordingmode max
attr source appSegmentDownloadDuration
scalar SimpleIoTNetwork.eeRouter appSegmentDownloadDuration:count 0
attr recordingmode count
attr source appSegmentDownloadDuration
scalar SimpleIoTNetwork.eeRouter appSegmentDownloadDuration:mean -nan
attr recordingmode mean
attr source appSegmentDownloadDuration
scalar SimpleIoTNetwork.eeRouter appContentDownloadDuration:min -nan
attr recordingmode min
attr source appContentDownloadDuration
scalar SimpleIoTNetwork.eeRouter appContentDownloadDuration:max -nan
attr recordingmode max
attr source appContentDownloadDuration
scalar SimpleIoTNetwork.eeRouter appContentDownloadDuration:count 0
attr recordingmode count
attr source appContentDownloadDuration
scalar SimpleIoTNetwork.eeRouter appContentDownloadDuration:mean -nan
attr recordingmode mean
attr source appContentDownloadDuration
par SimpleIoTNetwork.csAP.numen typename "\"inbaversim.Numen\""
par SimpleIoTNetwork.csAP.fwd typename "\"inbaversim.RFC8569Forwarder\""
par SimpleIoTNetwork.csAP.fwd maximumContentStoreSize 0byte
attr unit byte
par SimpleIoTNetwork.csAP.wired[0] typename "\"inbaversim.WiredTransport\""
par SimpleIoTNetwork.csAP.wired[0] wiredTechnology "\"Ethernet\""
par SimpleIoTNetwork.csAP.wired[0] dataRate 1e+06bps
attr unit bps
par SimpleIoTNetwork.csAP.wired[0] packetErrorRate 0pct
attr unit pct
par SimpleIoTNetwork.csAP.wired[0] headerSize 32byte
attr unit byte
par SimpleIoTNetwork.csAP.wireless[0] typename "\"inbaversim.WirelessTransport\""
par SimpleIoTNetwork.csAP.wireless[0] wirelessTechnology "\"WLAN\""
par SimpleIoTNetwork.csAP.wireless[0] operationMode "\"ap\""
par SimpleIoTNetwork.csAP.wireless[0] connectString "\"ccn\""
par SimpleIoTNetwork.csAP.wireless[0] wirelessRange 80meter
attr unit meter
par SimpleIoTNetwork.csAP.wireless[0] dataRate 1e+06bps
attr unit bps
par SimpleIoTNetwork.csAP.wireless[0] packetErrorRate 0pct
attr unit pct
par SimpleIoTNetwork.csAP.wireless[0] scanInterval 1s
attr unit s
par SimpleIoTNetwork.csAP.wireless[0] headerSize 32byte
attr unit byte
par SimpleIoTNetwork.csAP.wireless[0] wirelessRangeRadiusShow true
par SimpleIoTNetwork.csAP.wireless[0] wirelessRangeRadiusColor "\"black\""
par SimpleIoTNetwork.csAP.mob typename "\"inet.mobility.static.StationaryMobility\""
par SimpleIoTNetwork.csAP.mob subjectModule "\"^\""
par SimpleIoTNetwork.csAP.mob coordinateSystemModule "\"\""
par SimpleIoTNetwork.csAP.mob displayStringTextFormat "\"p: %p\\nv: %v\""
attr mutable ""
par SimpleIoTNetwork.csAP.mob updateDisplayString true
par SimpleIoTNetwork.csAP.mob constraintAreaMinX 0m
attr unit m
par SimpleIoTNetwork.csAP.mob constraintAreaMinY 0m
attr unit m
par SimpleIoTNetwork.csAP.mob constraintAreaMinZ 0m
attr unit m
par SimpleIoTNetwork.csAP.mob constraintAreaMaxX 700m
attr unit m
par SimpleIoTNetwork.csAP.mob constraintAreaMaxY 400m
attr unit m
par SimpleIoTNetwork.csAP.mob constraintAreaMaxZ 0m
attr unit m
par SimpleIoTNetwork.csAP.mob initialX 427.268m
attr unit m
par SimpleIoTNetwork.csAP.mob initialY 380.113m
attr unit m
par SimpleIoTNetwork.csAP.mob initialZ 0m
attr unit m
par SimpleIoTNetwork.csAP.mob initialLatitude "nan deg"
attr unit deg
par SimpleIoTNetwork.csAP.mob initialLongitude "nan deg"
attr unit deg
par SimpleIoTNetwork.csAP.mob initialAltitude 0m
attr unit m
par SimpleIoTNetwork.csAP.mob initialHeading 0deg
attr unit deg
par SimpleIoTNetwork.csAP.mob initialElevation 0deg
attr unit deg
par SimpleIoTNetwork.csAP.mob initialBank 0deg
attr unit deg
par SimpleIoTNetwork.csAP.mob initFromDisplayString true
par SimpleIoTNetwork.csAP.mob updateFromDisplayString true
par SimpleIoTNetwork.csAP typename "\"inbaversim.WirelessAccessRouter\""
par SimpleIoTNetwork.csAP numApps 0
par SimpleIoTNetwork.csAP numWiredTransports 1
par SimpleIoTNetwork.csAP numWirelessTransports 1
par SimpleIoTNetwork.csAP wirelessAccessRouterNumWiredTransports 1
par SimpleIoTNetwork.csAP wirelessAccessRouterNumWirelessTransports 1
par SimpleIoTNetwork.csAP forwarder "\"RFC8569Forwarder\""
par SimpleIoTNetwork.csAP wlanConnectString "\"ccn\""
par SimpleIoTNetwork.csAP wlanWirelessRange 80meter
attr unit meter
par SimpleIoTNetwork.csAP wlanDataRate 1e+06bps
attr unit bps
par SimpleIoTNetwork.csAP wlanPacketErrorRate 0pct
attr unit pct
par SimpleIoTNetwork.csAP ethDataRate 1e+06bps
attr unit bps
par SimpleIoTNetwork.csAP ethPacketErrorRate 0pct
attr unit pct
par SimpleIoTNetwork.csAP mobility "\"StationaryMobility\""
scalar SimpleIoTNetwork.csAP transportTotalWirelessBytesSent:count 1700
attr recordingmode count
attr source transportTotalWirelessBytesSent
scalar SimpleIoTNetwork.csAP transportTotalWirelessBytesSent:mean 785.64705882353
attr recordingmode mean
attr source transportTotalWirelessBytesSent
scalar SimpleIoTNetwork.csAP transportTotalWirelessBytesSent:sum 1335600
attr recordingmode sum
attr source transportTotalWirelessBytesSent
scalar SimpleIoTNetwork.csAP transportTotalWirelessBytesReceived:count 1254
attr recordingmode count
attr source transportTotalWirelessBytesReceived
scalar SimpleIoTNetwork.csAP transportTotalWirelessBytesReceived:mean 48
attr recordingmode mean
attr source transportTotalWirelessBytesReceived
scalar SimpleIoTNetwork.csAP transportTotalWirelessBytesReceived:sum 60192
attr recordingmode sum
attr source transportTotalWirelessBytesReceived
scalar SimpleIoTNetwork.csAP transportTotalWiredBytesSent:count 1254
attr recordingmode count
attr source transportTotalWiredBytesSent
scalar SimpleIoTNetwork.csAP transportTotalWiredBytesSent:mean 48
attr recordingmode mean
attr source transportTotalWiredBytesSent
scalar SimpleIoTNetwork.csAP transportTotalWiredBytesSent:sum 60192
attr recordingmode sum
attr source transportTotalWiredBytesSent
scalar SimpleIoTNetwork.csAP transportTotalWiredBytesReceived:count 1700
attr recordingmode count
attr source transportTotalWiredBytesReceived
scalar SimpleIoTNetwork.csAP transportTotalWiredBytesReceived:mean 785.64705882353
attr recordingmode mean
attr source transportTotalWiredBytesReceived
scalar SimpleIoTNetwork.csAP transportTotalWiredBytesReceived:sum 1335600
attr recordingmode sum
attr source transportTotalWiredBytesReceived
scalar SimpleIoTNetwork.csAP fwdCacheMissRatio:min 1
attr recordingmode min
attr source fwdCacheMissRatio
scalar SimpleIoTNetwork.csAP fwdCacheMissRatio:max 1
attr recordingmode max
attr source fwdCacheMissRatio
scalar SimpleIoTNetwork.csAP fwdCacheMissRatio:count 1700
attr recordingmode count
attr source fwdCacheMissRatio
scalar SimpleIoTNetwork.csAP fwdCacheMissRatio:last 1
attr recordingmode last
attr source fwdCacheMissRatio
scalar SimpleIoTNetwork.csAP fwdCacheHitRatio:min 0
attr recordingmode min
attr source fwdCacheHitRatio
scalar SimpleIoTNetwork.csAP fwdCacheHitRatio:max 0
attr recordingmode max
attr source fwdCacheHitRatio
scalar SimpleIoTNetwork.csAP fwdCacheHitRatio:count 1700
attr recordingmode count
attr source fwdCacheHitRatio
scalar SimpleIoTNetwork.csAP fwdCacheHitRatio:last 0
attr recordingmode last
attr source fwdCacheHitRatio
scalar SimpleIoTNetwork.csAP fwdPITEntryCount:min 1
attr recordingmode min
attr source fwdPITEntryCount
scalar SimpleIoTNetwork.csAP fwdPITEntryCount:max 447
attr recordingmode max
attr source fwdPITEntryCount
scalar SimpleIoTNetwork.csAP fwdPITEntryCount:count 2954
attr recordingmode count
attr source fwdPITEntryCount
scalar SimpleIoTNetwork.csAP fwdPITEntryCount:mean 325.53249830738
attr recordingmode mean
attr source fwdPITEntryCount
scalar SimpleIoTNetwork.csAP fwdPITEntryCount:timeavg 442.50615616674
attr recordingmode timeavg
attr source fwdPITEntryCount
scalar SimpleIoTNetwork.csAP fwdPITEntryCount:last 446
attr recordingmode last
attr source fwdPITEntryCount
scalar SimpleIoTNetwork.csAP fwdFIBEntryCount:min 1
attr recordingmode min
attr source fwdFIBEntryCount
scalar SimpleIoTNetwork.csAP fwdFIBEntryCount:max 1
attr recordingmode max
attr source fwdFIBEntryCount
scalar SimpleIoTNetwork.csAP fwdFIBEntryCount:count 2
attr recordingmode count
attr source fwdFIBEntryCount
scalar SimpleIoTNetwork.csAP fwdFIBEntryCount:mean 1
attr recordingmode mean
attr source fwdFIBEntryCount
scalar SimpleIoTNetwork.csAP fwdFIBEntryCount:timeavg 1
attr recordingmode timeavg
attr source fwdFIBEntryCount
scalar SimpleIoTNetwork.csAP fwdFIBEntryCount:last 1
attr recordingmode last
attr source fwdFIBEntryCount
scalar SimpleIoTNetwork.csAP fwdCacheRemovalsBytes:count 0
attr recordingmode count
attr source fwdCacheRemovalsBytes
scalar SimpleIoTNetwork.csAP fwdCacheRemovalsBytes:mean -nan
attr recordingmode mean
attr source fwdCacheRemovalsBytes
scalar SimpleIoTNetwork.csAP fwdCacheRemovalsBytes:sum 0
attr recordingmode sum
attr source fwdCacheRemovalsBytes
scalar SimpleIoTNetwork.csAP fwdCacheAdditionsBytes:count 1254
attr recordingmode count
attr source fwdCacheAdditionsBytes
scalar SimpleIoTNetwork.csAP fwdCacheAdditionsBytes:mean 1000
attr recordingmode mean
attr source fwdCacheAdditionsBytes
scalar SimpleIoTNetwork.csAP fwdCacheAdditionsBytes:sum 1254000
attr recordingmode sum
attr source fwdCacheAdditionsBytes
scalar SimpleIoTNetwork.csAP fwdCacheSizeBytes:min 1000
attr recordingmode min
attr source fwdCacheSizeBytes
scalar SimpleIoTNetwork.csAP fwdCacheSizeBytes:max 1254000
attr recordingmode max
attr source fwdCacheSizeBytes
scalar SimpleIoTNetwork.csAP fwdCacheSizeBytes:count 1254
attr recordingmode count
attr source fwdCacheSizeBytes
scalar SimpleIoTNetwork.csAP fwdCacheSizeBytes:mean 627500
attr recordingmode mean
attr source fwdCacheSizeBytes
scalar SimpleIoTNetwork.csAP fwdCacheSizeBytes:timeavg 1218105.5162043
attr recordingmode timeavg
attr source fwdCacheSizeBytes
scalar SimpleIoTNetwork.csAP fwdCacheSizeBytes:last 1254000
attr recordingmode last
attr source fwdCacheSizeBytes
scalar SimpleIoTNetwork.csAP fwdTotalContentObjsBytesSent:count 1254
attr recordingmode count
attr source fwdTotalContentObjsBytesSent
scalar SimpleIoTNetwork.csAP fwdTotalContentObjsBytesSent:mean 1016
attr recordingmode mean
attr source fwdTotalContentObjsBytesSent
scalar SimpleIoTNetwork.csAP fwdTotalContentObjsBytesSent:sum 1274064
attr recordingmode sum
attr source fwdTotalContentObjsBytesSent
scalar SimpleIoTNetwork.csAP fwdTotalInterestRtnsBytesSent:count 0
attr recordingmode count
attr source fwdTotalInterestRtnsBytesSent
scalar SimpleIoTNetwork.csAP fwdTotalInterestRtnsBytesSent:mean -nan
attr recordingmode mean
attr source fwdTotalInterestRtnsBytesSent
scalar SimpleIoTNetwork.csAP fwdTotalInterestRtnsBytesSent:sum 0
attr recordingmode sum
attr source fwdTotalInterestRtnsBytesSent
scalar SimpleIoTNetwork.csAP fwdTotalInterestsBytesSent:count 1700
attr recordingmode count
attr source fwdTotalInterestsBytesSent
scalar SimpleIoTNetwork.csAP fwdTotalInterestsBytesSent:mean 16
attr recordingmode mean
attr source fwdTotalInterestsBytesSent
scalar SimpleIoTNetwork.csAP fwdTotalInterestsBytesSent:sum 27200
attr recordingmode sum
attr source fwdTotalInterestsBytesSent
scalar SimpleIoTNetwork.csAP fwdTotalContentObjsBytesReceived:count 1254
attr recordingmode count
attr source fwdTotalContentObjsBytesReceived
scalar SimpleIoTNetwork.csAP fwdTotalContentObjsBytesReceived:mean 1016
attr recordingmode mean
attr source fwdTotalContentObjsBytesReceived
scalar SimpleIoTNetwork.csAP fwdTotalContentObjsBytesReceived:sum 1274064
attr recordingmode sum
attr source fwdTotalContentObjsBytesReceived
scalar SimpleIoTNetwork.csAP fwdTotalInterestRtnsBytesReceived:count 0
attr recordingmode count
attr source fwdTotalInterestRtnsBytesReceived
scalar SimpleIoTNetwork.csAP fwdTotalInterestRtnsBytesReceived:mean -nan
attr recordingmode mean
attr source fwdTotalInterestRtnsBytesReceived
scalar SimpleIoTNetwork.csAP fwdTotalInterestRtnsBytesReceived:sum 0
attr recordingmode sum
attr source fwdTotalInterestRtnsBytesReceived
scalar SimpleIoTNetwork.csAP fwdTotalInterestsBytesReceived:count 1700
attr recordingmode count
attr source fwdTotalInterestsBytesReceived
scalar SimpleIoTNetwork.csAP fwdTotalInterestsBytesReceived:mean 16
attr recordingmode mean
attr source fwdTotalInterestsBytesReceived
scalar SimpleIoTNetwork.csAP fwdTotalInterestsBytesReceived:sum 27200
attr recordingmode sum
attr source fwdTotalInterestsBytesReceived
scalar SimpleIoTNetwork.csAP appTotalDataBytesSent:count 0
attr recordingmode count
attr source appTotalDataBytesSent
scalar SimpleIoTNetwork.csAP appTotalDataBytesSent:mean -nan
attr recordingmode mean
attr source appTotalDataBytesSent
scalar SimpleIoTNetwork.csAP appTotalDataBytesSent:sum 0
attr recordingmode sum
attr source appTotalDataBytesSent
scalar SimpleIoTNetwork.csAP appTotalContentObjsBytesSent:count 0
attr recordingmode count
attr source appTotalContentObjsBytesSent
scalar SimpleIoTNetwork.csAP appTotalContentObjsBytesSent:mean -nan
attr recordingmode mean
attr source appTotalContentObjsBytesSent
scalar SimpleIoTNetwork.csAP appTotalContentObjsBytesSent:sum 0
attr recordingmode sum
attr source appTotalContentObjsBytesSent
scalar SimpleIoTNetwork.csAP appTotalInterestsBytesReceived:count 0
attr recordingmode count
attr source appTotalInterestsBytesReceived
scalar SimpleIoTNetwork.csAP appTotalInterestsBytesReceived:mean -nan
attr recordingmode mean
attr source appTotalInterestsBytesReceived
scalar SimpleIoTNetwork.csAP appTotalInterestsBytesReceived:sum 0
attr recordingmode sum
attr source appTotalInterestsBytesReceived
scalar SimpleIoTNetwork.csAP appTotalDataBytesReceived:count 0
attr recordingmode count
attr source appTotalDataBytesReceived
scalar SimpleIoTNetwork.csAP appTotalDataBytesReceived:mean -nan
attr recordingmode mean
attr source appTotalDataBytesReceived
scalar SimpleIoTNetwork.csAP appTotalDataBytesReceived:sum 0
attr recordingmode sum
attr source appTotalDataBytesReceived
scalar SimpleIoTNetwork.csAP appTotalContentObjsBytesReceived:count 0
attr recordingmode count
attr source appTotalContentObjsBytesReceived
scalar SimpleIoTNetwork.csAP appTotalContentObjsBytesReceived:mean -nan
attr recordingmode mean
attr source appTotalContentObjsBytesReceived
scalar SimpleIoTNetwork.csAP appTotalContentObjsBytesReceived:sum 0
attr recordingmode sum
attr source appTotalContentObjsBytesReceived
scalar SimpleIoTNetwork.csAP appRetransmissionInterestsBytesSent:count 0
attr recordingmode count
attr source appRetransmissionInterestsBytesSent
scalar SimpleIoTNetwork.csAP appRetransmissionInterestsBytesSent:mean -nan
attr recordingmode mean
attr source appRetransmissionInterestsBytesSent
scalar SimpleIoTNetwork.csAP appRetransmissionInterestsBytesSent:sum 0
attr recordingmode sum
attr source appRetransmissionInterestsBytesSent
scalar SimpleIoTNetwork.csAP appTotalInterestsBytesSent:count 0
attr recordingmode count
attr source appTotalInterestsBytesSent
scalar SimpleIoTNetwork.csAP appTotalInterestsBytesSent:mean -nan
attr recordingmode mean
attr source appTotalInterestsBytesSent
scalar SimpleIoTNetwork.csAP appTotalInterestsBytesSent:sum 0
attr recordingmode sum
attr source appTotalInterestsBytesSent
scalar SimpleIoTNetwork.csAP appSegmentDownloadDuration:min -nan
attr recordingmode min
attr source appSegmentDownloadDuration
scalar SimpleIoTNetwork.csAP appSegmentDownloadDuration:max -nan
attr recordingmode max
attr source appSegmentDownloadDuration
scalar SimpleIoTNetwork.csAP appSegmentDownloadDuration:count 0
attr recordingmode count
attr source appSegmentDownloadDuration
scalar SimpleIoTNetwork.csAP appSegmentDownloadDuration:mean -nan
attr recordingmode mean
attr source appSegmentDownloadDuration
scalar SimpleIoTNetwork.csAP appContentDownloadDuration:min -nan
attr recordingmode min
attr source appContentDownloadDuration
scalar SimpleIoTNetwork.csAP appContentDownloadDuration:max -nan
attr recordingmode max
attr source appContentDownloadDuration
scalar SimpleIoTNetwork.csAP appContentDownloadDuration:count 0
attr recordingmode count
attr source appContentDownloadDuration
scalar SimpleIoTNetwork.csAP appContentDownloadDuration:mean -nan
attr recordingmode mean
attr source appContentDownloadDuration
par SimpleIoTNetwork.frank.numen typename "\"inbaversim.Numen\""
par SimpleIoTNetwork.frank.app[0] typename "\"inbaversim.ContentDownloadApp\""
par SimpleIoTNetwork.frank.app[0] interContentDownloadInterval "uniform(100s, 150s)"
attr unit s
par SimpleIoTNetwork.frank.app[0] requestedPrefixNames "\"ccnx://uhb.de/ee/admin/\""
par SimpleIoTNetwork.frank.app[0] dataNamePrefix "\"etpo\""
par SimpleIoTNetwork.frank.app[0] nextFileSuffix "intuniform(0, 99)"
par SimpleIoTNetwork.frank.app[0] maxHopsAllowed 16
par SimpleIoTNetwork.frank.app[0] interestRetransmitTimeout 120s
attr unit s
par SimpleIoTNetwork.frank.fwd typename "\"inbaversim.RFC8569Forwarder\""
par SimpleIoTNetwork.frank.fwd maximumContentStoreSize 0byte
attr unit byte
par SimpleIoTNetwork.frank.wired[0] typename "\"inbaversim.WiredTransport\""
par SimpleIoTNetwork.frank.wired[0] wiredTechnology "\"Ethernet\""
par SimpleIoTNetwork.frank.wired[0] dataRate 1e+06bps
attr unit bps
par SimpleIoTNetwork.frank.wired[0] packetErrorRate 0pct
attr unit pct
par SimpleIoTNetwork.frank.wired[0] headerSize 32byte
attr unit byte
par SimpleIoTNetwork.frank.mob typename "\"inet.mobility.static.StationaryMobility\""
par SimpleIoTNetwork.frank.mob subjectModule "\"^\""
par SimpleIoTNetwork.frank.mob coordinateSystemModule "\"\""
par SimpleIoTNetwork.frank.mob displayStringTextFormat "\"p: %p\\nv: %v\""
attr mutable ""
par SimpleIoTNetwork.frank.mob updateDisplayString true
par SimpleIoTNetwork.frank.mob constraintAreaMinX 0m
attr unit m
par SimpleIoTNetwork.frank.mob constraintAreaMinY 0m
attr unit m
par SimpleIoTNetwork.frank.mob constraintAreaMinZ 0m
attr unit m
par SimpleIoTNetwork.frank.mob constraintAreaMaxX 700m
attr unit m
par SimpleIoTNetwork.frank.mob constraintAreaMaxY 400m
attr unit m
par SimpleIoTNetwork.frank.mob constraintAreaMaxZ 0m
attr unit m
par SimpleIoTNetwork.frank.mob initialX 337.534m
attr unit m
par SimpleIoTNetwork.frank.mob initialY 144.321m
attr unit m
par SimpleIoTNetwork.frank.mob initialZ 0m
attr unit m
par SimpleIoTNetwork.frank.mob initialLatitude "nan deg"
attr unit deg
par SimpleIoTNetwork.frank.mob initialLongitude "nan deg"
attr unit deg
par SimpleIoTNetwork.frank.mob initialAltitude 0m
attr unit m
par SimpleIoTNetwork.frank.mob initialHeading 0deg
attr unit deg
par SimpleIoTNetwork.frank.mob initialElevation 0deg
attr unit deg
par SimpleIoTNetwork.frank.mob initialBank 0deg
attr unit deg
par SimpleIoTNetwork.frank.mob initFromDisplayString true
par SimpleIoTNetwork.frank.mob updateFromDisplayString true
par SimpleIoTNetwork.frank typename "\"inbaversim.WiredNode\""
par SimpleIoTNetwork.frank numApps 1
par SimpleIoTNetwork.frank numWiredTransports 1
par SimpleIoTNetwork.frank numWirelessTransports 0
par SimpleIoTNetwork.frank wiredNodeNumWiredTransports 1
par SimpleIoTNetwork.frank wiredNodeNumWirelessTransports 0
par SimpleIoTNetwork.frank forwarder "\"RFC8569Forwarder\""
par SimpleIoTNetwork.frank ethDataRate 1e+06bps
attr unit bps
par SimpleIoTNetwork.frank ethPacketErrorRate 0pct
attr unit pct
par SimpleIoTNetwork.frank mobility "\"StationaryMobility\""
scalar SimpleIoTNetwork.frank transportTotalWirelessBytesSent:count 0
attr recordingmode count
attr source transportTotalWirelessBytesSent
scalar SimpleIoTNetwork.frank transportTotalWirelessBytesSent:mean -nan
attr recordingmode mean
attr source transportTotalWirelessBytesSent
scalar SimpleIoTNetwork.frank transportTotalWirelessBytesSent:sum 0
attr recordingmode sum
attr source transportTotalWirelessBytesSent
scalar SimpleIoTNetwork.frank transportTotalWirelessBytesReceived:count 0
attr recordingmode count
attr source transportTotalWirelessBytesReceived
scalar SimpleIoTNetwork.frank transportTotalWirelessBytesReceived:mean -nan
attr recordingmode mean
attr source transportTotalWirelessBytesReceived
scalar SimpleIoTNetwork.frank transportTotalWirelessBytesReceived:sum 0
attr recordingmode sum
attr source transportTotalWirelessBytesReceived
scalar SimpleIoTNetwork.frank transportTotalWiredBytesSent:count 224
attr recordingmode count
attr source transportTotalWiredBytesSent
scalar SimpleIoTNetwork.frank transportTotalWiredBytesSent:mean 48
attr recordingmode mean
attr source transportTotalWiredBytesSent
scalar SimpleIoTNetwork.frank transportTotalWiredBytesSent:sum 10752
attr recordingmode sum
attr source transportTotalWiredBytesSent
scalar SimpleIoTNetwork.frank transportTotalWiredBytesReceived:count 1698
attr recordingmode count
attr source transportTotalWiredBytesReceived
scalar SimpleIoTNetwork.frank transportTotalWiredBytesReceived:mean 179.9199057715
attr recordingmode mean
attr source transportTotalWiredBytesReceived
scalar SimpleIoTNetwork.frank transportTotalWiredBytesReceived:sum 305504
attr recordingmode sum
attr source transportTotalWiredBytesReceived
scalar SimpleIoTNetwork.frank fwdCacheMissRatio:min 0.90196078431373
attr recordingmode min
attr source fwdCacheMissRatio
scalar SimpleIoTNetwork.frank fwdCacheMissRatio:max 1
attr recordingmode max
attr source fwdCacheMissRatio
scalar SimpleIoTNetwork.frank fwdCacheMissRatio:count 3216
attr recordingmode count
attr source fwdCacheMissRatio
scalar SimpleIoTNetwork.frank fwdCacheMissRatio:last 0.96735074626866
attr recordingmode last
attr source fwdCacheMissRatio
scalar SimpleIoTNetwork.frank fwdCacheHitRatio:min 0
attr recordingmode min
attr source fwdCacheHitRatio
scalar SimpleIoTNetwork.frank fwdCacheHitRatio:max 0.098039215686275
attr recordingmode max
attr source fwdCacheHitRatio
scalar SimpleIoTNetwork.frank fwdCacheHitRatio:count 3216
attr recordingmode count
attr source fwdCacheHitRatio
scalar SimpleIoTNetwork.frank fwdCacheHitRatio:last 0.032649253731343
attr recordingmode last
attr source fwdCacheHitRatio
scalar SimpleIoTNetwork.frank fwdPITEntryCount:min 1
attr recordingmode min
attr source fwdPITEntryCount
scalar SimpleIoTNetwork.frank fwdPITEntryCount:max 1474
attr recordingmode max
attr source fwdPITEntryCount
scalar SimpleIoTNetwork.frank fwdPITEntryCount:count 1922
attr recordingmode count
attr source fwdPITEntryCount
scalar SimpleIoTNetwork.frank fwdPITEntryCount:mean 660.82154006244
attr recordingmode mean
attr source fwdPITEntryCount
scalar SimpleIoTNetwork.frank fwdPITEntryCount:timeavg 1435.7039635197
attr recordingmode timeavg
attr source fwdPITEntryCount
scalar SimpleIoTNetwork.frank fwdPITEntryCount:last 1474
attr recordingmode last
attr source fwdPITEntryCount
scalar SimpleIoTNetwork.frank fwdFIBEntryCount:min 1
attr recordingmode min
attr source fwdFIBEntryCount
scalar SimpleIoTNetwork.frank fwdFIBEntryCount:max 1
attr recordingmode max
attr source fwdFIBEntryCount
scalar SimpleIoTNetwork.frank fwdFIBEntryCount:count 1
attr recordingmode count
attr source fwdFIBEntryCount
scalar SimpleIoTNetwork.frank fwdFIBEntryCount:mean 1
attr recordingmode mean
attr source fwdFIBEntryCount
scalar SimpleIoTNetwork.frank fwdFIBEntryCount:timeavg 1
attr recordingmode timeavg
attr source fwdFIBEntryCount
scalar SimpleIoTNetwork.frank fwdFIBEntryCount:last 1
attr recordingmode last
attr source fwdFIBEntryCount
scalar SimpleIoTNetwork.frank fwdCacheRemovalsBytes:count 0
attr recordingmode count
attr source fwdCacheRemovalsBytes
scalar SimpleIoTNetwork.frank fwdCacheRemovalsBytes:mean -nan
attr recordingmode mean
attr source fwdCacheRemovalsBytes
scalar SimpleIoTNetwork.frank fwdCacheRemovalsBytes:sum 0
attr recordingmode sum
attr source fwdCacheRemovalsBytes
scalar SimpleIoTNetwork.frank fwdCacheAdditionsBytes:count 224
attr recordingmode count
attr source fwdCacheAdditionsBytes
scalar SimpleIoTNetwork.frank fwdCacheAdditionsBytes:mean 1000
attr recordingmode mean
attr source fwdCacheAdditionsBytes
scalar SimpleIoTNetwork.frank fwdCacheAdditionsBytes:sum 224000
attr recordingmode sum
attr source fwdCacheAdditionsBytes
scalar SimpleIoTNetwork.frank fwdCacheSizeBytes:min 1000
attr recordingmode min
attr source fwdCacheSizeBytes
scalar SimpleIoTNetwork.frank fwdCacheSizeBytes:max 224000
attr recordingmode max
attr source fwdCacheSizeBytes
scalar SimpleIoTNetwork.frank fwdCacheSizeBytes:count 224
attr recordingmode count
attr source fwdCacheSizeBytes
scalar SimpleIoTNetwork.frank fwdCacheSizeBytes:mean 112500
attr recordingmode mean
attr source fwdCacheSizeBytes
scalar SimpleIoTNetwork.frank fwdCacheSizeBytes:timeavg 222303.51542349
attr recordingmode timeavg
attr source fwdCacheSizeBytes
scalar SimpleIoTNetwork.frank fwdCacheSizeBytes:last 224000
attr recordingmode last
attr source fwdCacheSizeBytes
scalar SimpleIoTNetwork.frank fwdTotalContentObjsBytesSent:count 0
attr recordingmode count
attr source fwdTotalContentObjsBytesSent
scalar SimpleIoTNetwork.frank fwdTotalContentObjsBytesSent:mean -nan
attr recordingmode mean
attr source fwdTotalContentObjsBytesSent
scalar SimpleIoTNetwork.frank fwdTotalContentObjsBytesSent:sum 0
attr recordingmode sum
attr source fwdTotalContentObjsBytesSent
scalar SimpleIoTNetwork.frank fwdTotalInterestRtnsBytesSent:count 0
attr recordingmode count
attr source fwdTotalInterestRtnsBytesSent
scalar SimpleIoTNetwork.frank fwdTotalInterestRtnsBytesSent:mean -nan
attr recordingmode mean
attr source fwdTotalInterestRtnsBytesSent
scalar SimpleIoTNetwork.frank fwdTotalInterestRtnsBytesSent:sum 0
attr recordingmode sum
attr source fwdTotalInterestRtnsBytesSent
scalar SimpleIoTNetwork.frank fwdTotalInterestsBytesSent:count 224
attr recordingmode count
attr source fwdTotalInterestsBytesSent
scalar SimpleIoTNetwork.frank fwdTotalInterestsBytesSent:mean 16
attr recordingmode mean
attr source fwdTotalInterestsBytesSent
scalar SimpleIoTNetwork.frank fwdTotalInterestsBytesSent:sum 3584
attr recordingmode sum
attr source fwdTotalInterestsBytesSent
scalar SimpleIoTNetwork.frank fwdTotalContentObjsBytesReceived:count 224
attr recordingmode count
attr source fwdTotalContentObjsBytesReceived
scalar SimpleIoTNetwork.frank fwdTotalContentObjsBytesReceived:mean 1016
attr recordingmode mean
attr source fwdTotalContentObjsBytesReceived
scalar SimpleIoTNetwork.frank fwdTotalContentObjsBytesReceived:sum 227584
attr recordingmode sum
attr source fwdTotalContentObjsBytesReceived
scalar SimpleIoTNetwork.frank fwdTotalInterestRtnsBytesReceived:count 0
attr recordingmode count
attr source fwdTotalInterestRtnsBytesReceived
scalar SimpleIoTNetwork.frank fwdTotalInterestRtnsBytesReceived:mean -nan
attr recordingmode mean
attr source fwdTotalInterestRtnsBytesReceived
scalar SimpleIoTNetwork.frank fwdTotalInterestRtnsBytesReceived:sum 0
attr recordingmode sum
attr source fwdTotalInterestRtnsBytesReceived
scalar SimpleIoTNetwork.frank fwdTotalInterestsBytesReceived:count 1474
attr recordingmode count
attr source fwdTotalInterestsBytesReceived
scalar SimpleIoTNetwork.frank fwdTotalInterestsBytesReceived:mean 16
attr recordingmode mean
attr source fwdTotalInterestsBytesReceived
scalar SimpleIoTNetwork.frank fwdTotalInterestsBytesReceived:sum 23584
attr recordingmode sum
attr source fwdTotalInterestsBytesReceived
scalar SimpleIoTNetwork.frank appTotalDataBytesSent:count 0
attr recordingmode count
attr source appTotalDataBytesSent
scalar SimpleIoTNetwork.frank appTotalDataBytesSent:mean -nan
attr recordingmode mean
attr source appTotalDataBytesSent
scalar SimpleIoTNetwork.frank appTotalDataBytesSent:sum 0
attr recordingmode sum
attr source appTotalDataBytesSent
scalar SimpleIoTNetwork.frank appTotalContentObjsBytesSent:count 0
attr recordingmode count
attr source appTotalContentObjsBytesSent
scalar SimpleIoTNetwork.frank appTotalContentObjsBytesSent:mean -nan
attr recordingmode mean
attr source appTotalContentObjsBytesSent
scalar SimpleIoTNetwork.frank appTotalContentObjsBytesSent:sum 0
attr recordingmode sum
attr source appTotalContentObjsBytesSent
scalar SimpleIoTNetwork.frank appTotalInterestsBytesReceived:count 0
attr recordingmode count
attr source appTotalInterestsBytesReceived
scalar SimpleIoTNetwork.frank appTotalInterestsBytesReceived:mean -nan
attr recordingmode mean
attr source appTotalInterestsBytesReceived
scalar SimpleIoTNetwork.frank appTotalInterestsBytesReceived:sum 0
attr recordingmode sum
attr source appTotalInterestsBytesReceived
scalar SimpleIoTNetwork.frank appTotalDataBytesReceived:count 329
attr recordingmode count
attr source appTotalDataBytesReceived
scalar SimpleIoTNetwork.frank appTotalDataBytesReceived:mean 1000
attr recordingmode mean
attr source appTotalDataBytesReceived
scalar SimpleIoTNetwork.frank appTotalDataBytesReceived:sum 329000
attr recordingmode sum
attr source appTotalDataBytesReceived
scalar SimpleIoTNetwork.frank appTotalContentObjsBytesReceived:count 329
attr recordingmode count
attr source appTotalContentObjsBytesReceived
scalar SimpleIoTNetwork.frank appTotalContentObjsBytesReceived:mean 1016
attr recordingmode mean
attr source appTotalContentObjsBytesReceived
scalar SimpleIoTNetwork.frank appTotalContentObjsBytesReceived:sum 334264
attr recordingmode sum
attr source appTotalContentObjsBytesReceived
scalar SimpleIoTNetwork.frank appRetransmissionInterestsBytesSent:count 1412
attr recordingmode count
attr source appRetransmissionInterestsBytesSent
scalar SimpleIoTNetwork.frank appRetransmissionInterestsBytesSent:mean 16
attr recordingmode mean
attr source appRetransmissionInterestsBytesSent
scalar SimpleIoTNetwork.frank appRetransmissionInterestsBytesSent:sum 22592
attr recordingmode sum
attr source appRetransmissionInterestsBytesSent
scalar SimpleIoTNetwork.frank appTotalInterestsBytesSent:count 1742
attr recordingmode count
attr source appTotalInterestsBytesSent
scalar SimpleIoTNetwork.frank appTotalInterestsBytesSent:mean 16
attr recordingmode mean
attr source appTotalInterestsBytesSent
scalar SimpleIoTNetwork.frank appTotalInterestsBytesSent:sum 27872
attr recordingmode sum
attr source appTotalInterestsBytesSent
scalar SimpleIoTNetwork.frank appSegmentDownloadDuration:min 0
attr recordingmode min
attr source appSegmentDownloadDuration
scalar SimpleIoTNetwork.frank appSegmentDownloadDuration:max 0.000184128
attr recordingmode max
attr source appSegmentDownloadDuration
scalar SimpleIoTNetwork.frank appSegmentDownloadDuration:count 329
attr recordingmode count
attr source appSegmentDownloadDuration
scalar SimpleIoTNetwork.frank appSegmentDownloadDuration:mean 0.00012536374468085
attr recordingmode mean
attr source appSegmentDownloadDuration
scalar SimpleIoTNetwork.frank appContentDownloadDuration:min 0
attr recordingmode min
attr source appContentDownloadDuration
scalar SimpleIoTNetwork.frank appContentDownloadDuration:max 0.00368256
attr recordingmode max
attr source appContentDownloadDuration
scalar SimpleIoTNetwork.frank appContentDownloadDuration:count 25
attr recordingmode count
attr source appContentDownloadDuration
scalar SimpleIoTNetwork.frank appContentDownloadDuration:mean 0.00164978688
attr recordingmode mean
attr source appContentDownloadDuration
par SimpleIoTNetwork.eeManagement.numen typename "\"inbaversim.Numen\""
par SimpleIoTNetwork.eeManagement.app[0] typename "\"inbaversim.ThingsApp\""
par SimpleIoTNetwork.eeManagement.app[0] sensorDataRetrievalStartTime 30s
attr unit s
par SimpleIoTNetwork.eeManagement.app[0] interDataDownloadInterval "uniform(20s, 50s)"
attr unit s
par SimpleIoTNetwork.eeManagement.app[0] requestedSensorNetworkPrefixName "\"ccnx://uhb.de/ee/iot/\""
par SimpleIoTNetwork.eeManagement.app[0] interestLifetime 8s
attr unit s
par SimpleIoTNetwork.eeManagement.app[0] sensorDataNames "\"temperature;humidity\""
par SimpleIoTNetwork.eeManagement.app[0] nextIndexOfSensorDataToRetrieve "intuniform(0, 1)"
par SimpleIoTNetwork.eeManagement.app[0] maxSensorDataReadingsToKeep 100
par SimpleIoTNetwork.eeManagement.app[0] maxHopsAllowed 5
par SimpleIoTNetwork.eeManagement.fwd typename "\"inbaversim.RFC8569Forwarder\""
par SimpleIoTNetwork.eeManagement.fwd maximumContentStoreSize 0byte
attr unit byte
par SimpleIoTNetwork.eeManagement.wired[0] typename "\"inbaversim.WiredTransport\""
par SimpleIoTNetwork.eeManagement.wired[0] wiredTechnology "\"Ethernet\""
par SimpleIoTNetwork.eeManagement.wired[0] dataRate 1e+06bps
attr unit bps
par SimpleIoTNetwork.eeManagement.wired[0] packetErrorRate 0pct
attr unit pct
par SimpleIoTNetwork.eeManagement.wired[0] headerSize 32byte
attr unit byte
par SimpleIoTNetwork.eeManagement.mob typename "\"inet.mobility.static.StationaryMobility\""
par SimpleIoTNetwork.eeManagement.mob subjectModule "\"^\""
par SimpleIoTNetwork.eeManagement.mob coordinateSystemModule "\"\""
par SimpleIoTNetwork.eeManagement.mob displayStringTextFormat "\"p: %p\\nv: %v\""
attr mutable ""
par SimpleIoTNetwork.eeManagement.mob updateDisplayString true
par SimpleIoTNetwork.eeManagement.mob constraintAreaMinX 0m
attr unit m
par SimpleIoTNetwork.eeManagement.mob constraintAreaMinY 0m
attr unit m
par SimpleIoTNetwork.eeManagement.mob constraintAreaMinZ 0m
attr unit m
par SimpleIoTNetwork.eeManagement.mob constraintAreaMaxX 700m
attr unit m
par SimpleIoTNetwork.eeManagement.mob constraintAreaMaxY 400m
attr unit m
par SimpleIoTNetwork.eeManagement.mob constraintAreaMaxZ 0m
attr unit m
par SimpleIoTNetwork.eeManagement.mob initialX 594.992m
attr unit m
par SimpleIoTNetwork.eeManagement.mob initialY 84.9331m
attr unit m
par SimpleIoTNetwork.eeManagement.mob initialZ 0m
attr unit m
par SimpleIoTNetwork.eeManagement.mob initialLatitude "nan deg"
attr unit deg
par SimpleIoTNetwork.eeManagement.mob initialLongitude "nan deg"
attr unit deg
par SimpleIoTNetwork.eeManagement.mob initialAltitude 0m
attr unit m
par SimpleIoTNetwork.eeManagement.mob initialHeading 0deg
attr unit deg
par SimpleIoTNetwork.eeManagement.mob initialElevation 0deg
attr unit deg
par SimpleIoTNetwork.eeManagement.mob initialBank 0deg
attr unit deg
par SimpleIoTNetwork.eeManagement.mob initFromDisplayString true
par SimpleIoTNetwork.eeManagement.mob updateFromDisplayString true
par SimpleIoTNetwork.eeManagement typename "\"inbaversim.WiredNode\""
par SimpleIoTNetwork.eeManagement numApps 1
par SimpleIoTNetwork.eeManagement numWiredTransports 1
par SimpleIoTNetwork.eeManagement numWirelessTransports 0
par SimpleIoTNetwork.eeManagement wiredNodeNumWiredTransports 1
par SimpleIoTNetwork.eeManagement wiredNodeNumWirelessTransports 0
par SimpleIoTNetwork.eeManagement forwarder "\"RFC8569Forwarder\""
par SimpleIoTNetwork.eeManagement ethDataRate 1e+06bps
attr unit bps
par SimpleIoTNetwork.eeManagement ethPacketErrorRate 0pct
attr unit pct
par SimpleIoTNetwork.eeManagement mobility "\"StationaryMobility\""
scalar SimpleIoTNetwork.eeManagement transportTotalWirelessBytesSent:count 0
attr recordingmode count
attr source transportTotalWirelessBytesSent
scalar SimpleIoTNetwork.eeManagement transportTotalWirelessBytesSent:mean -nan
attr recordingmode mean
attr source transportTotalWirelessBytesSent
scalar SimpleIoTNetwork.eeManagement transportTotalWirelessBytesSent:sum 0
attr recordingmode sum
attr source transportTotalWirelessBytesSent
scalar SimpleIoTNetwork.eeManagement transportTotalWirelessBytesReceived:count 0
attr recordingmode count
attr source transportTotalWirelessBytesReceived
scalar SimpleIoTNetwork.eeManagement transportTotalWirelessBytesReceived:mean -nan
attr recordingmode mean
attr source transportTotalWirelessBytesReceived
scalar SimpleIoTNetwork.eeManagement transportTotalWirelessBytesReceived:sum 0
attr recordingmode sum
attr source transportTotalWirelessBytesReceived
scalar SimpleIoTNetwork.eeManagement transportTotalWiredBytesSent:count 1
attr recordingmode count
attr source transportTotalWiredBytesSent
scalar SimpleIoTNetwork.eeManagement transportTotalWiredBytesSent:mean 48
attr recordingmode mean
attr source transportTotalWiredBytesSent
scalar SimpleIoTNetwork.eeManagement transportTotalWiredBytesSent:sum 48
attr recordingmode sum
attr source transportTotalWiredBytesSent
scalar SimpleIoTNetwork.eeManagement transportTotalWiredBytesReceived:count 1698
attr recordingmode count
attr source transportTotalWiredBytesReceived
scalar SimpleIoTNetwork.eeManagement transportTotalWiredBytesReceived:mean 48.021201413428
attr recordingmode mean
attr source transportTotalWiredBytesReceived
scalar SimpleIoTNetwork.eeManagement transportTotalWiredBytesReceived:sum 81540
attr recordingmode sum
attr source transportTotalWiredBytesReceived
scalar SimpleIoTNetwork.eeManagement fwdCacheMissRatio:min 0.63095778483886
attr recordingmode min
attr source fwdCacheMissRatio
scalar SimpleIoTNetwork.eeManagement fwdCacheMissRatio:max 1
attr recordingmode max
attr source fwdCacheMissRatio
scalar SimpleIoTNetwork.eeManagement fwdCacheMissRatio:count 6613
attr recordingmode count
attr source fwdCacheMissRatio
scalar SimpleIoTNetwork.eeManagement fwdCacheMissRatio:last 0.63102978980795
attr recordingmode last
attr source fwdCacheMissRatio
scalar SimpleIoTNetwork.eeManagement fwdCacheHitRatio:min 0
attr recordingmode min
attr source fwdCacheHitRatio
scalar SimpleIoTNetwork.eeManagement fwdCacheHitRatio:max 0.36904221516114
attr recordingmode max
attr source fwdCacheHitRatio
scalar SimpleIoTNetwork.eeManagement fwdCacheHitRatio:count 6613
attr recordingmode count
attr source fwdCacheHitRatio
scalar SimpleIoTNetwork.eeManagement fwdCacheHitRatio:last 0.36897021019205
attr recordingmode last
attr source fwdCacheHitRatio
scalar SimpleIoTNetwork.eeManagement fwdPITEntryCount:min 0
attr recordingmode min
attr source fwdPITEntryCount
scalar SimpleIoTNetwork.eeManagement fwdPITEntryCount:max 1697
attr recordingmode max
attr source fwdPITEntryCount
scalar SimpleIoTNetwork.eeManagement fwdPITEntryCount:count 1699
attr recordingmode count
attr source fwdPITEntryCount
scalar SimpleIoTNetwork.eeManagement fwdPITEntryCount:mean 848.00117716304
attr recordingmode mean
attr source fwdPITEntryCount
scalar SimpleIoTNetwork.eeManagement fwdPITEntryCount:timeavg 1656.9050042624
attr recordingmode timeavg
attr source fwdPITEntryCount
scalar SimpleIoTNetwork.eeManagement fwdPITEntryCount:last 1697
attr recordingmode last
attr source fwdPITEntryCount
scalar SimpleIoTNetwork.eeManagement fwdFIBEntryCount:min 1
attr recordingmode min
attr source fwdFIBEntryCount
scalar SimpleIoTNetwork.eeManagement fwdFIBEntryCount:max 1
attr recordingmode max
attr source fwdFIBEntryCount
scalar SimpleIoTNetwork.eeManagement fwdFIBEntryCount:count 1
attr recordingmode count
attr source fwdFIBEntryCount
scalar SimpleIoTNetwork.eeManagement fwdFIBEntryCount:mean 1
attr recordingmode mean
attr source fwdFIBEntryCount
scalar SimpleIoTNetwork.eeManagement fwdFIBEntryCount:timeavg 1
attr recordingmode timeavg
attr source fwdFIBEntryCount
scalar SimpleIoTNetwork.eeManagement fwdFIBEntryCount:last 1
attr recordingmode last
attr source fwdFIBEntryCount
scalar SimpleIoTNetwork.eeManagement fwdCacheRemovalsBytes:count 0
attr recordingmode count
attr source fwdCacheRemovalsBytes
scalar SimpleIoTNetwork.eeManagement fwdCacheRemovalsBytes:mean -nan
attr recordingmode mean
attr source fwdCacheRemovalsBytes
scalar SimpleIoTNetwork.eeManagement fwdCacheRemovalsBytes:sum 0
attr recordingmode sum
attr source fwdCacheRemovalsBytes
scalar SimpleIoTNetwork.eeManagement fwdCacheAdditionsBytes:count 1
attr recordingmode count
attr source fwdCacheAdditionsBytes
scalar SimpleIoTNetwork.eeManagement fwdCacheAdditionsBytes:mean 36
attr recordingmode mean
attr source fwdCacheAdditionsBytes
scalar SimpleIoTNetwork.eeManagement fwdCacheAdditionsBytes:sum 36
attr recordingmode sum
attr source fwdCacheAdditionsBytes
scalar SimpleIoTNetwork.eeManagement fwdCacheSizeBytes:min 36
attr recordingmode min
attr source fwdCacheSizeBytes
scalar SimpleIoTNetwork.eeManagement fwdCacheSizeBytes:max 36
attr recordingmode max
attr source fwdCacheSizeBytes
scalar SimpleIoTNetwork.eeManagement fwdCacheSizeBytes:count 1
attr recordingmode count
attr source fwdCacheSizeBytes
scalar SimpleIoTNetwork.eeManagement fwdCacheSizeBytes:mean 36
attr recordingmode mean
attr source fwdCacheSizeBytes
scalar SimpleIoTNetwork.eeManagement fwdCacheSizeBytes:timeavg 36
attr recordingmode timeavg
attr source fwdCacheSizeBytes
scalar SimpleIoTNetwork.eeManagement fwdCacheSizeBytes:last 36
attr recordingmode last
attr source fwdCacheSizeBytes
scalar SimpleIoTNetwork.eeManagement fwdTotalContentObjsBytesSent:count 0
attr recordingmode count
attr source fwdTotalContentObjsBytesSent
scalar SimpleIoTNetwork.eeManagement fwdTotalContentObjsBytesSent:mean -nan
attr recordingmode mean
attr source fwdTotalContentObjsBytesSent
scalar SimpleIoTNetwork.eeManagement fwdTotalContentObjsBytesSent:sum 0
attr recordingmode sum
[...]
attr recordingmode mean
attr source appTotalInterestsBytesReceived
scalar SimpleIoTNetwork.csRouter appTotalInterestsBytesReceived:sum 0
attr recordingmode sum
attr source appTotalInterestsBytesReceived
scalar SimpleIoTNetwork.csRouter appTotalDataBytesReceived:count 0
attr recordingmode count
attr source appTotalDataBytesReceived
scalar SimpleIoTNetwork.csRouter appTotalDataBytesReceived:mean -nan
attr recordingmode mean
attr source appTotalDataBytesReceived
scalar SimpleIoTNetwork.csRouter appTotalDataBytesReceived:sum 0
attr recordingmode sum
attr source appTotalDataBytesReceived
scalar SimpleIoTNetwork.csRouter appTotalContentObjsBytesReceived:count 0
attr recordingmode count
attr source appTotalContentObjsBytesReceived
scalar SimpleIoTNetwork.csRouter appTotalContentObjsBytesReceived:mean -nan
attr recordingmode mean
attr source appTotalContentObjsBytesReceived
scalar SimpleIoTNetwork.csRouter appTotalContentObjsBytesReceived:sum 0
attr recordingmode sum
attr source appTotalContentObjsBytesReceived
scalar SimpleIoTNetwork.csRouter appRetransmissionInterestsBytesSent:count 0
attr recordingmode count
attr source appRetransmissionInterestsBytesSent
scalar SimpleIoTNetwork.csRouter appRetransmissionInterestsBytesSent:mean -nan
attr recordingmode mean
attr source appRetransmissionInterestsBytesSent
scalar SimpleIoTNetwork.csRouter appRetransmissionInterestsBytesSent:sum 0
attr recordingmode sum
attr source appRetransmissionInterestsBytesSent
scalar SimpleIoTNetwork.csRouter appTotalInterestsBytesSent:count 0
attr recordingmode count
attr source appTotalInterestsBytesSent
scalar SimpleIoTNetwork.csRouter appTotalInterestsBytesSent:mean -nan
attr recordingmode mean
attr source appTotalInterestsBytesSent
scalar SimpleIoTNetwork.csRouter appTotalInterestsBytesSent:sum 0
attr recordingmode sum
attr source appTotalInterestsBytesSent
scalar SimpleIoTNetwork.csRouter appSegmentDownloadDuration:min -nan
attr recordingmode min
attr source appSegmentDownloadDuration
scalar SimpleIoTNetwork.csRouter appSegmentDownloadDuration:max -nan
attr recordingmode max
attr source appSegmentDownloadDuration
scalar SimpleIoTNetwork.csRouter appSegmentDownloadDuration:count 0
attr recordingmode count
attr source appSegmentDownloadDuration
scalar SimpleIoTNetwork.csRouter appSegmentDownloadDuration:mean -nan
attr recordingmode mean
attr source appSegmentDownloadDuration
scalar SimpleIoTNetwork.csRouter appContentDownloadDuration:min -nan
attr recordingmode min
attr source appContentDownloadDuration
scalar SimpleIoTNetwork.csRouter appContentDownloadDuration:max -nan
attr recordingmode max
attr source appContentDownloadDuration
scalar SimpleIoTNetwork.csRouter appContentDownloadDuration:count 0
attr recordingmode count
attr source appContentDownloadDuration
scalar SimpleIoTNetwork.csRouter appContentDownloadDuration:mean -nan
attr recordingmode mean
attr source appContentDownloadDuration
par SimpleIoTNetwork.csManagement.numen typename "\"inbaversim.Numen\""
par SimpleIoTNetwork.csManagement.app[0] typename "\"inbaversim.ThingsApp\""
par SimpleIoTNetwork.csManagement.app[0] sensorDataRetrievalStartTime 30s
attr unit s
par SimpleIoTNetwork.csManagement.app[0] interDataDownloadInterval "uniform(20s, 50s)"
attr unit s
par SimpleIoTNetwork.csManagement.app[0] requestedSensorNetworkPrefixName "\"ccnx://uhb.de/cs/iot/\""
par SimpleIoTNetwork.csManagement.app[0] interestLifetime 8s
attr unit s
par SimpleIoTNetwork.csManagement.app[0] sensorDataNames "\"temperature;humidity\""
par SimpleIoTNetwork.csManagement.app[0] nextIndexOfSensorDataToRetrieve "intuniform(0, 1)"
par SimpleIoTNetwork.csManagement.app[0] maxSensorDataReadingsToKeep 100
par SimpleIoTNetwork.csManagement.app[0] maxHopsAllowed 5
par SimpleIoTNetwork.csManagement.fwd typename "\"inbaversim.RFC8569Forwarder\""
par SimpleIoTNetwork.csManagement.fwd maximumContentStoreSize 0byte
attr unit byte
par SimpleIoTNetwork.csManagement.wired[0] typename "\"inbaversim.WiredTransport\""
par SimpleIoTNetwork.csManagement.wired[0] wiredTechnology "\"Ethernet\""
par SimpleIoTNetwork.csManagement.wired[0] dataRate 1e+06bps
attr unit bps
par SimpleIoTNetwork.csManagement.wired[0] packetErrorRate 0pct
attr unit pct
par SimpleIoTNetwork.csManagement.wired[0] headerSize 32byte
attr unit byte
par SimpleIoTNetwork.csManagement.mob typename "\"inet.mobility.static.StationaryMobility\""
par SimpleIoTNetwork.csManagement.mob subjectModule "\"^\""
par SimpleIoTNetwork.csManagement.mob coordinateSystemModule "\"\""
par SimpleIoTNetwork.csManagement.mob displayStringTextFormat "\"p: %p\\nv: %v\""
attr mutable ""
par SimpleIoTNetwork.csManagement.mob updateDisplayString true
par SimpleIoTNetwork.csManagement.mob constraintAreaMinX 0m
attr unit m
par SimpleIoTNetwork.csManagement.mob constraintAreaMinY 0m
attr unit m
par SimpleIoTNetwork.csManagement.mob constraintAreaMinZ 0m
attr unit m
par SimpleIoTNetwork.csManagement.mob constraintAreaMaxX 700m
attr unit m
par SimpleIoTNetwork.csManagement.mob constraintAreaMaxY 400m
attr unit m
par SimpleIoTNetwork.csManagement.mob constraintAreaMaxZ 0m
attr unit m
par SimpleIoTNetwork.csManagement.mob initialX 421.156m
attr unit m
par SimpleIoTNetwork.csManagement.mob initialY 4.16868m
attr unit m
par SimpleIoTNetwork.csManagement.mob initialZ 0m
attr unit m
par SimpleIoTNetwork.csManagement.mob initialLatitude "nan deg"
attr unit deg
par SimpleIoTNetwork.csManagement.mob initialLongitude "nan deg"
attr unit deg
par SimpleIoTNetwork.csManagement.mob initialAltitude 0m
attr unit m
par SimpleIoTNetwork.csManagement.mob initialHeading 0deg
attr unit deg
par SimpleIoTNetwork.csManagement.mob initialElevation 0deg
attr unit deg
par SimpleIoTNetwork.csManagement.mob initialBank 0deg
attr unit deg
par SimpleIoTNetwork.csManagement.mob initFromDisplayString true
par SimpleIoTNetwork.csManagement.mob updateFromDisplayString true
par SimpleIoTNetwork.csManagement typename "\"inbaversim.WiredNode\""
par SimpleIoTNetwork.csManagement numApps 1
par SimpleIoTNetwork.csManagement numWiredTransports 1
par SimpleIoTNetwork.csManagement numWirelessTransports 0
par SimpleIoTNetwork.csManagement wiredNodeNumWiredTransports 1
par SimpleIoTNetwork.csManagement wiredNodeNumWirelessTransports 0
par SimpleIoTNetwork.csManagement forwarder "\"RFC8569Forwarder\""
par SimpleIoTNetwork.csManagement ethDataRate 1e+06bps
attr unit bps
par SimpleIoTNetwork.csManagement ethPacketErrorRate 0pct
attr unit pct
par SimpleIoTNetwork.csManagement mobility "\"StationaryMobility\""
scalar SimpleIoTNetwork.csManagement transportTotalWirelessBytesSent:count 0
attr recordingmode count
attr source transportTotalWirelessBytesSent
scalar SimpleIoTNetwork.csManagement transportTotalWirelessBytesSent:mean -nan
attr recordingmode mean
attr source transportTotalWirelessBytesSent
scalar SimpleIoTNetwork.csManagement transportTotalWirelessBytesSent:sum 0
attr recordingmode sum
attr source transportTotalWirelessBytesSent
scalar SimpleIoTNetwork.csManagement transportTotalWirelessBytesReceived:count 0
attr recordingmode count
attr source transportTotalWirelessBytesReceived
scalar SimpleIoTNetwork.csManagement transportTotalWirelessBytesReceived:mean -nan
attr recordingmode mean
attr source transportTotalWirelessBytesReceived
scalar SimpleIoTNetwork.csManagement transportTotalWirelessBytesReceived:sum 0
attr recordingmode sum
attr source transportTotalWirelessBytesReceived
scalar SimpleIoTNetwork.csManagement transportTotalWiredBytesSent:count 2
attr recordingmode count
attr source transportTotalWiredBytesSent
scalar SimpleIoTNetwork.csManagement transportTotalWiredBytesSent:mean 48
attr recordingmode mean
attr source transportTotalWiredBytesSent
scalar SimpleIoTNetwork.csManagement transportTotalWiredBytesSent:sum 96
attr recordingmode sum
attr source transportTotalWiredBytesSent
scalar SimpleIoTNetwork.csManagement transportTotalWiredBytesReceived:count 1700
attr recordingmode count
attr source transportTotalWiredBytesReceived
scalar SimpleIoTNetwork.csManagement transportTotalWiredBytesReceived:mean 48.042352941176
attr recordingmode mean
attr source transportTotalWiredBytesReceived
scalar SimpleIoTNetwork.csManagement transportTotalWiredBytesReceived:sum 81672
attr recordingmode sum
attr source transportTotalWiredBytesReceived
scalar SimpleIoTNetwork.csManagement fwdCacheMissRatio:min 0.25625565269822
attr recordingmode min
attr source fwdCacheMissRatio
scalar SimpleIoTNetwork.csManagement fwdCacheMissRatio:max 1
attr recordingmode max
attr source fwdCacheMissRatio
scalar SimpleIoTNetwork.csManagement fwdCacheMissRatio:count 6634
attr recordingmode count
attr source fwdCacheMissRatio
scalar SimpleIoTNetwork.csManagement fwdCacheMissRatio:last 0.25625565269822
attr recordingmode last
attr source fwdCacheMissRatio
scalar SimpleIoTNetwork.csManagement fwdCacheHitRatio:min 0
attr recordingmode min
attr source fwdCacheHitRatio
scalar SimpleIoTNetwork.csManagement fwdCacheHitRatio:max 0.74374434730178
attr recordingmode max
attr source fwdCacheHitRatio
scalar SimpleIoTNetwork.csManagement fwdCacheHitRatio:count 6634
attr recordingmode count
attr source fwdCacheHitRatio
scalar SimpleIoTNetwork.csManagement fwdCacheHitRatio:last 0.74374434730178
attr recordingmode last
attr source fwdCacheHitRatio
scalar SimpleIoTNetwork.csManagement fwdPITEntryCount:min 1
attr recordingmode min
attr source fwdPITEntryCount
scalar SimpleIoTNetwork.csManagement fwdPITEntryCount:max 1698
attr recordingmode max
attr source fwdPITEntryCount
scalar SimpleIoTNetwork.csManagement fwdPITEntryCount:count 1702
attr recordingmode count
attr source fwdPITEntryCount
scalar SimpleIoTNetwork.csManagement fwdPITEntryCount:mean 847.57990599295
attr recordingmode mean
attr source fwdPITEntryCount
scalar SimpleIoTNetwork.csManagement fwdPITEntryCount:timeavg 1657.9050042562
attr recordingmode timeavg
attr source fwdPITEntryCount
scalar SimpleIoTNetwork.csManagement fwdPITEntryCount:last 1698
attr recordingmode last
attr source fwdPITEntryCount
scalar SimpleIoTNetwork.csManagement fwdFIBEntryCount:min 1
attr recordingmode min
attr source fwdFIBEntryCount
scalar SimpleIoTNetwork.csManagement fwdFIBEntryCount:max 1
attr recordingmode max
attr source fwdFIBEntryCount
scalar SimpleIoTNetwork.csManagement fwdFIBEntryCount:count 1
attr recordingmode count
attr source fwdFIBEntryCount
scalar SimpleIoTNetwork.csManagement fwdFIBEntryCount:mean 1
attr recordingmode mean
attr source fwdFIBEntryCount
scalar SimpleIoTNetwork.csManagement fwdFIBEntryCount:timeavg 1
attr recordingmode timeavg
attr source fwdFIBEntryCount
scalar SimpleIoTNetwork.csManagement fwdFIBEntryCount:last 1
attr recordingmode last
attr source fwdFIBEntryCount
scalar SimpleIoTNetwork.csManagement fwdCacheRemovalsBytes:count 0
attr recordingmode count
attr source fwdCacheRemovalsBytes
scalar SimpleIoTNetwork.csManagement fwdCacheRemovalsBytes:mean -nan
attr recordingmode mean
attr source fwdCacheRemovalsBytes
scalar SimpleIoTNetwork.csManagement fwdCacheRemovalsBytes:sum 0
attr recordingmode sum
attr source fwdCacheRemovalsBytes
scalar SimpleIoTNetwork.csManagement fwdCacheAdditionsBytes:count 2
attr recordingmode count
attr source fwdCacheAdditionsBytes
scalar SimpleIoTNetwork.csManagement fwdCacheAdditionsBytes:mean 36
attr recordingmode mean
attr source fwdCacheAdditionsBytes
scalar SimpleIoTNetwork.csManagement fwdCacheAdditionsBytes:sum 72
attr recordingmode sum
attr source fwdCacheAdditionsBytes
scalar SimpleIoTNetwork.csManagement fwdCacheSizeBytes:min 36
attr recordingmode min
attr source fwdCacheSizeBytes
scalar SimpleIoTNetwork.csManagement fwdCacheSizeBytes:max 72
attr recordingmode max
attr source fwdCacheSizeBytes
scalar SimpleIoTNetwork.csManagement fwdCacheSizeBytes:count 2
attr recordingmode count
attr source fwdCacheSizeBytes
scalar SimpleIoTNetwork.csManagement fwdCacheSizeBytes:mean 54
attr recordingmode mean
attr source fwdCacheSizeBytes
scalar SimpleIoTNetwork.csManagement fwdCacheSizeBytes:timeavg 71.967695787853
attr recordingmode timeavg
attr source fwdCacheSizeBytes
scalar SimpleIoTNetwork.csManagement fwdCacheSizeBytes:last 72
attr recordingmode last
attr source fwdCacheSizeBytes
scalar SimpleIoTNetwork.csManagement fwdTotalContentObjsBytesSent:count 0
attr recordingmode count
attr source fwdTotalContentObjsBytesSent
scalar SimpleIoTNetwork.csManagement fwdTotalContentObjsBytesSent:mean -nan
attr recordingmode mean
attr source fwdTotalContentObjsBytesSent
scalar SimpleIoTNetwork.csManagement fwdTotalContentObjsBytesSent:sum 0
attr recordingmode sum
attr source fwdTotalContentObjsBytesSent
scalar SimpleIoTNetwork.csManagement fwdTotalInterestRtnsBytesSent:count 0
attr recordingmode count
attr source fwdTotalInterestRtnsBytesSent
scalar SimpleIoTNetwork.csManagement fwdTotalInterestRtnsBytesSent:mean -nan
attr recordingmode mean
attr source fwdTotalInterestRtnsBytesSent
scalar SimpleIoTNetwork.csManagement fwdTotalInterestRtnsBytesSent:sum 0
attr recordingmode sum
attr source fwdTotalInterestRtnsBytesSent
scalar SimpleIoTNetwork.csManagement fwdTotalInterestsBytesSent:count 2
attr recordingmode count
attr source fwdTotalInterestsBytesSent
scalar SimpleIoTNetwork.csManagement fwdTotalInterestsBytesSent:mean 16
attr recordingmode mean
attr source fwdTotalInterestsBytesSent
scalar SimpleIoTNetwork.csManagement fwdTotalInterestsBytesSent:sum 32
attr recordingmode sum
attr source fwdTotalInterestsBytesSent
scalar SimpleIoTNetwork.csManagement fwdTotalContentObjsBytesReceived:count 2
attr recordingmode count
attr source fwdTotalContentObjsBytesReceived
scalar SimpleIoTNetwork.csManagement fwdTotalContentObjsBytesReceived:mean 52
attr recordingmode mean
attr source fwdTotalContentObjsBytesReceived
scalar SimpleIoTNetwork.csManagement fwdTotalContentObjsBytesReceived:sum 104
attr recordingmode sum
attr source fwdTotalContentObjsBytesReceived
scalar SimpleIoTNetwork.csManagement fwdTotalInterestRtnsBytesReceived:count 0
attr recordingmode count
attr source fwdTotalInterestRtnsBytesReceived
scalar SimpleIoTNetwork.csManagement fwdTotalInterestRtnsBytesReceived:mean -nan
attr recordingmode mean
attr source fwdTotalInterestRtnsBytesReceived
scalar SimpleIoTNetwork.csManagement fwdTotalInterestRtnsBytesReceived:sum 0
attr recordingmode sum
attr source fwdTotalInterestRtnsBytesReceived
scalar SimpleIoTNetwork.csManagement fwdTotalInterestsBytesReceived:count 1698
attr recordingmode count
attr source fwdTotalInterestsBytesReceived
scalar SimpleIoTNetwork.csManagement fwdTotalInterestsBytesReceived:mean 16
attr recordingmode mean
attr source fwdTotalInterestsBytesReceived
scalar SimpleIoTNetwork.csManagement fwdTotalInterestsBytesReceived:sum 27168
attr recordingmode sum
attr source fwdTotalInterestsBytesReceived
scalar SimpleIoTNetwork.csManagement appTotalDataBytesSent:count 0
attr recordingmode count
attr source appTotalDataBytesSent
scalar SimpleIoTNetwork.csManagement appTotalDataBytesSent:mean -nan
attr recordingmode mean
attr source appTotalDataBytesSent
scalar SimpleIoTNetwork.csManagement appTotalDataBytesSent:sum 0
attr recordingmode sum
attr source appTotalDataBytesSent
scalar SimpleIoTNetwork.csManagement appTotalContentObjsBytesSent:count 0
attr recordingmode count
attr source appTotalContentObjsBytesSent
scalar SimpleIoTNetwork.csManagement appTotalContentObjsBytesSent:mean -nan
attr recordingmode mean
attr source appTotalContentObjsBytesSent
scalar SimpleIoTNetwork.csManagement appTotalContentObjsBytesSent:sum 0
attr recordingmode sum
attr source appTotalContentObjsBytesSent
scalar SimpleIoTNetwork.csManagement appTotalInterestsBytesReceived:count 0
attr recordingmode count
attr source appTotalInterestsBytesReceived
scalar SimpleIoTNetwork.csManagement appTotalInterestsBytesReceived:mean -nan
attr recordingmode mean
attr source appTotalInterestsBytesReceived
scalar SimpleIoTNetwork.csManagement appTotalInterestsBytesReceived:sum 0
attr recordingmode sum
attr source appTotalInterestsBytesReceived
scalar SimpleIoTNetwork.csManagement appTotalDataBytesReceived:count 4936
attr recordingmode count
attr source appTotalDataBytesReceived
scalar SimpleIoTNetwork.csManagement appTotalDataBytesReceived:mean 36
attr recordingmode mean
attr source appTotalDataBytesReceived
scalar SimpleIoTNetwork.csManagement appTotalDataBytesReceived:sum 177696
attr recordingmode sum
attr source appTotalDataBytesReceived
scalar SimpleIoTNetwork.csManagement appTotalContentObjsBytesReceived:count 4936
attr recordingmode count
attr source appTotalContentObjsBytesReceived
scalar SimpleIoTNetwork.csManagement appTotalContentObjsBytesReceived:mean 52
attr recordingmode mean
attr source appTotalContentObjsBytesReceived
scalar SimpleIoTNetwork.csManagement appTotalContentObjsBytesReceived:sum 256672
attr recordingmode sum
attr source appTotalContentObjsBytesReceived
scalar SimpleIoTNetwork.csManagement appRetransmissionInterestsBytesSent:count 0
attr recordingmode count
attr source appRetransmissionInterestsBytesSent
scalar SimpleIoTNetwork.csManagement appRetransmissionInterestsBytesSent:mean -nan
attr recordingmode mean
attr source appRetransmissionInterestsBytesSent
scalar SimpleIoTNetwork.csManagement appRetransmissionInterestsBytesSent:sum 0
attr recordingmode sum
attr source appRetransmissionInterestsBytesSent
scalar SimpleIoTNetwork.csManagement appTotalInterestsBytesSent:count 4936
attr recordingmode count
attr source appTotalInterestsBytesSent
scalar SimpleIoTNetwork.csManagement appTotalInterestsBytesSent:mean 16
attr recordingmode mean
attr source appTotalInterestsBytesSent
scalar SimpleIoTNetwork.csManagement appTotalInterestsBytesSent:sum 78976
attr recordingmode sum
attr source appTotalInterestsBytesSent
scalar SimpleIoTNetwork.csManagement appSegmentDownloadDuration:min -nan
attr recordingmode min
attr source appSegmentDownloadDuration
scalar SimpleIoTNetwork.csManagement appSegmentDownloadDuration:max -nan
attr recordingmode max
attr source appSegmentDownloadDuration
scalar SimpleIoTNetwork.csManagement appSegmentDownloadDuration:count 0
attr recordingmode count
attr source appSegmentDownloadDuration
scalar SimpleIoTNetwork.csManagement appSegmentDownloadDuration:mean -nan
attr recordingmode mean
attr source appSegmentDownloadDuration
scalar SimpleIoTNetwork.csManagement appContentDownloadDuration:min -nan
attr recordingmode min
attr source appContentDownloadDuration
scalar SimpleIoTNetwork.csManagement appContentDownloadDuration:max -nan
attr recordingmode max
attr source appContentDownloadDuration
scalar SimpleIoTNetwork.csManagement appContentDownloadDuration:count 0
attr recordingmode count
attr source appContentDownloadDuration
scalar SimpleIoTNetwork.csManagement appContentDownloadDuration:mean -nan
attr recordingmode mean
attr source appContentDownloadDuration
par SimpleIoTNetwork typename "\"inbaversim.simulations.SimpleIoTNetwork\""
scalar SimpleIoTNetwork fwdNetworkCacheMissRatio:min 0.31148908664542
attr recordingmode min
attr source fwdNetworkCacheMissRatio
scalar SimpleIoTNetwork fwdNetworkCacheMissRatio:max 1
attr recordingmode max
attr source fwdNetworkCacheMissRatio
scalar SimpleIoTNetwork fwdNetworkCacheMissRatio:count 133048
attr recordingmode count
attr source fwdNetworkCacheMissRatio
scalar SimpleIoTNetwork fwdNetworkCacheMissRatio:last 0.31148908664542
attr recordingmode last
attr source fwdNetworkCacheMissRatio
scalar SimpleIoTNetwork fwdNetworkCacheHitRatio:min 0
attr recordingmode min
attr source fwdNetworkCacheHitRatio
scalar SimpleIoTNetwork fwdNetworkCacheHitRatio:max 0.68851091335458
attr recordingmode max
attr source fwdNetworkCacheHitRatio
scalar SimpleIoTNetwork fwdNetworkCacheHitRatio:count 133048
attr recordingmode count
attr source fwdNetworkCacheHitRatio
scalar SimpleIoTNetwork fwdNetworkCacheHitRatio:last 0.68851091335458
attr recordingmode last
attr source fwdNetworkCacheHitRatio
scalar SimpleIoTNetwork appNetworkInterestRetransmissionCount:last 2824
attr recordingmode last
attr source appNetworkInterestRetransmissionCount

