version 3
run Simple-Net-0-20250612-18:00:09-9673
attr configname Simple-Net
attr datetime 20250612-18:00:09
attr datetimef 20250612-180009
attr experiment Simple-Net
attr inifile omnetpp-simple-network.ini
attr iterationvars ""
attr iterationvarsd ""
attr iterationvarsf ""
attr measurement ""
attr network SimpleNetwork
attr processid 9673
attr repetition 0
attr replication #0
attr resultdir results/
attr runnumber 0
attr seedset 0
config image-path ../../inet4.5/images
config **.contentServer1.numApps 1
config **.contentServer1.app[0].typename ContentHostApp
config **.contentServer1.app[0].hostedPrefixNames "\"ccnx://spacetime.com/\""
config **.contentServer1.app[0].dataNamePrefix "\"sptm\""
config **.contentServer1.app[0].segmentSize 1000byte
config **.contentServer1.app[0].numSegmentsPerFile "intuniform(5, 20)"
config **.contentServer1.app[0].cacheTime 2h
config **.contentServer2.numApps 1
config **.contentServer2.app[0].typename ContentHostApp
config **.contentServer2.app[0].hostedPrefixNames "\"ccnx://relativity.com/\""
config **.contentServer2.app[0].dataNamePrefix "\"rltv\""
config **.contentServer2.app[0].segmentSize 1000byte
config **.contentServer2.app[0].numSegmentsPerFile "intuniform(5, 20)"
config **.contentServer2.app[0].cacheTime 2h
config **.wirelessNode[*].numApps 1
config **.wirelessNode[*].app[0].typename ContentDownloadApp
config **.wirelessNode[*].app[0].interContentDownloadInterval "uniform(100.0s, 150.0s)"
config **.wirelessNode[*].app[0].requestedPrefixNames "\"ccnx://spacetime.com/\""
config **.wirelessNode[*].app[0].dataNamePrefix "\"sptm\""
config **.wirelessNode[*].app[0].interestRetransmitTimeout 120s
config **.wirelessNode[*].app[0].nextFileSuffix "intuniform(0, 99)"
config **.wirelessNode[*].btWirelessRange 60m
config **.wirelessNode[*].wlanWirelessRange 80m
config **.wirelessNode[*].**.constraintAreaMinX 0m
config **.wirelessNode[*].**.constraintAreaMinY 0m
config **.wirelessNode[*].**.constraintAreaMinZ 0m
config **.wirelessNode[*].**.constraintAreaMaxX 80m
config **.wirelessNode[*].**.constraintAreaMaxY 80m
config **.wirelessNode[*].**.constraintAreaMaxZ 0m
config **.wirelessNode[*].mobility "\"RandomWaypointMobility\""
config **.wirelessNode[*].**.speed "uniform(1mps, 2mps)"
config **.wirelessNode[*].**.waitTime "uniform(1200s, 1800s)"
config **.wirelessNode[*].**.initFromDisplayString false
config **.wirelessAccessRouter.**.constraintAreaMinX 0m
config **.wirelessAccessRouter.**.constraintAreaMinY 0m
config **.wirelessAccessRouter.**.constraintAreaMinZ 0m
config **.wirelessAccessRouter.**.constraintAreaMaxX 80m
config **.wirelessAccessRouter.**.constraintAreaMaxY 80m
config **.wirelessAccessRouter.**.constraintAreaMaxZ 0m
config **.wirelessAccessRouter.wlanWirelessRange 80m
config **.wirelessAccessRouter.**.initFromDisplayString false
config **.accessRouter.accessRouterNumWiredTransports 3
config **.wiredNode*.numApps 1
config **.wiredNode*.app[0].typename ContentDownloadApp
config **.wiredNode*.app[0].interContentDownloadInterval "uniform(100.0s, 150.0s)"
config **.wiredNode*.app[0].requestedPrefixNames "\"ccnx://relativity.com/\""
config **.wiredNode*.app[0].dataNamePrefix "\"rltv\""
config **.wiredNode*.app[0].interestRetransmitTimeout 120s
config **.wiredNode*.app[0].nextFileSuffix "intuniform(0, 99)"
config **.coreRouter1.coreRouterNumWiredTransports 4
config **.coreRouter2.coreRouterNumWiredTransports 2
config **.constraintAreaMinX 0m
config **.constraintAreaMinY 0m
config **.constraintAreaMinZ 0m
config **.constraintAreaMaxX 400m
config **.constraintAreaMaxY 400m
config **.constraintAreaMaxZ 0m
config **.updateInterval 1s
config **.initFromDisplayString true
config network SimpleNetwork
config sim-time-limit 48h
config repeat 1
config num-rngs 8
config seed-0-mt 1000
config seed-1-mt 2000
config seed-2-mt 3000
config seed-3-mt 4000
config seed-4-mt 5000
config seed-5-mt 6000
config seed-6-mt 7000
config seed-7-mt 8000
config **.deus.rng-0 1
config **.numen.rng-0 2
config **.app[*].rng-0 3
config **.fwd.rng-0 4
config **.wired[*].rng-0 5
config **.wireless[*].rng-0 6
config **.mobility.rng-0 7
config result-dir results/
config output-vector-file results//omnetpp-simple-network.ini-Simple-Net-0.vec
config output-scalar-file results//omnetpp-simple-network.ini-Simple-Net-0.sca
config **.vector-recording true
config **.scalar-recording true
config **.statistic-recording true
config record-eventlog false
config eventlog-file results//omnetpp-simple-network.ini-Simple-Net-0.elog

par SimpleNetwork.wiredNode1.wiredInOut$o[0].channel typename "\"ned.DatarateChannel\""
par SimpleNetwork.wiredNode1.wiredInOut$o[0].channel disabled false
attr mutable ""
par SimpleNetwork.wiredNode1.wiredInOut$o[0].channel delay 0s
attr mutable ""
attr unit s
par SimpleNetwork.wiredNode1.wiredInOut$o[0].channel datarate 1e+06bps
attr mutable ""
attr unit bps
par SimpleNetwork.wiredNode1.wiredInOut$o[0].channel ber 0
attr mutable ""
par SimpleNetwork.wiredNode1.wiredInOut$o[0].channel per 0
attr mutable ""
par SimpleNetwork.accessRouter.wiredInOut$o[0].channel typename "\"ned.DatarateChannel\""
par SimpleNetwork.accessRouter.wiredInOut$o[0].channel disabled false
attr mutable ""
par SimpleNetwork.accessRouter.wiredInOut$o[0].channel delay 0s
attr mutable ""
attr unit s
par SimpleNetwork.accessRouter.wiredInOut$o[0].channel datarate 1e+06bps
attr mutable ""
attr unit bps
par SimpleNetwork.accessRouter.wiredInOut$o[0].channel ber 0
attr mutable ""
par SimpleNetwork.accessRouter.wiredInOut$o[0].channel per 0
attr mutable ""
par SimpleNetwork.wiredNode2.wiredInOut$o[0].channel typename "\"ned.DatarateChannel\""
par SimpleNetwork.wiredNode2.wiredInOut$o[0].channel disabled false
attr mutable ""
par SimpleNetwork.wiredNode2.wiredInOut$o[0].channel delay 0s
attr mutable ""
attr unit s
par SimpleNetwork.wiredNode2.wiredInOut$o[0].channel datarate 1e+06bps
attr mutable ""
attr unit bps
par SimpleNetwork.wiredNode2.wiredInOut$o[0].channel ber 0
attr mutable ""
par SimpleNetwork.wiredNode2.wiredInOut$o[0].channel per 0
attr mutable ""
par SimpleNetwork.accessRouter.wiredInOut$o[1].channel typename "\"ned.DatarateChannel\""
par SimpleNetwork.accessRouter.wiredInOut$o[1].channel disabled false
attr mutable ""
par SimpleNetwork.accessRouter.wiredInOut$o[1].channel delay 0s
attr mutable ""
attr unit s
par SimpleNetwork.accessRouter.wiredInOut$o[1].channel datarate 1e+06bps
attr mutable ""
attr unit bps
par SimpleNetwork.accessRouter.wiredInOut$o[1].channel ber 0
attr mutable ""
par SimpleNetwork.accessRouter.wiredInOut$o[1].channel per 0
attr mutable ""
par SimpleNetwork.accessRouter.wiredInOut$o[2].channel typename "\"ned.DatarateChannel\""
par SimpleNetwork.accessRouter.wiredInOut$o[2].channel disabled false
attr mutable ""
par SimpleNetwork.accessRouter.wiredInOut$o[2].channel delay 0s
attr mutable ""
attr unit s
par SimpleNetwork.accessRouter.wiredInOut$o[2].channel datarate 1e+06bps
attr mutable ""
attr unit bps
par SimpleNetwork.accessRouter.wiredInOut$o[2].channel ber 0
attr mutable ""
par SimpleNetwork.accessRouter.wiredInOut$o[2].channel per 0
attr mutable ""
par SimpleNetwork.coreRouter1.wiredInOut$o[0].channel typename "\"ned.DatarateChannel\""
par SimpleNetwork.coreRouter1.wiredInOut$o[0].channel disabled false
attr mutable ""
par SimpleNetwork.coreRouter1.wiredInOut$o[0].channel delay 0s
attr mutable ""
attr unit s
par SimpleNetwork.coreRouter1.wiredInOut$o[0].channel datarate 1e+06bps
attr mutable ""
attr unit bps
par SimpleNetwork.coreRouter1.wiredInOut$o[0].channel ber 0
attr mutable ""
par SimpleNetwork.coreRouter1.wiredInOut$o[0].channel per 0
attr mutable ""
par SimpleNetwork.wirelessAccessRouter.wiredInOut$o[0].channel typename "\"ned.DatarateChannel\""
par SimpleNetwork.wirelessAccessRouter.wiredInOut$o[0].channel disabled false
attr mutable ""
par SimpleNetwork.wirelessAccessRouter.wiredInOut$o[0].channel delay 0s
attr mutable ""
attr unit s
par SimpleNetwork.wirelessAccessRouter.wiredInOut$o[0].channel datarate 1e+06bps
attr mutable ""
attr unit bps
par SimpleNetwork.wirelessAccessRouter.wiredInOut$o[0].channel ber 0
attr mutable ""
par SimpleNetwork.wirelessAccessRouter.wiredInOut$o[0].channel per 0
attr mutable ""
par SimpleNetwork.coreRouter1.wiredInOut$o[1].channel typename "\"ned.DatarateChannel\""
par SimpleNetwork.coreRouter1.wiredInOut$o[1].channel disabled false
attr mutable ""
par SimpleNetwork.coreRouter1.wiredInOut$o[1].channel delay 0s
attr mutable ""
attr unit s
par SimpleNetwork.coreRouter1.wiredInOut$o[1].channel datarate 1e+06bps
attr mutable ""
attr unit bps
par SimpleNetwork.coreRouter1.wiredInOut$o[1].channel ber 0
attr mutable ""
par SimpleNetwork.coreRouter1.wiredInOut$o[1].channel per 0
attr mutable ""
par SimpleNetwork.coreRouter1.wiredInOut$o[2].channel typename "\"ned.DatarateChannel\""
par SimpleNetwork.coreRouter1.wiredInOut$o[2].channel disabled false
attr mutable ""
par SimpleNetwork.coreRouter1.wiredInOut$o[2].channel delay 0s
attr mutable ""
attr unit s
par SimpleNetwork.coreRouter1.wiredInOut$o[2].channel datarate 1e+06bps
attr mutable ""
attr unit bps
par SimpleNetwork.coreRouter1.wiredInOut$o[2].channel ber 0
attr mutable ""
par SimpleNetwork.coreRouter1.wiredInOut$o[2].channel per 0
attr mutable ""
par SimpleNetwork.contentServer1.wiredInOut$o[0].channel typename "\"ned.DatarateChannel\""
par SimpleNetwork.contentServer1.wiredInOut$o[0].channel disabled false
attr mutable ""
par SimpleNetwork.contentServer1.wiredInOut$o[0].channel delay 0s
attr mutable ""
attr unit s
par SimpleNetwork.contentServer1.wiredInOut$o[0].channel datarate 1e+06bps
attr mutable ""
attr unit bps
par SimpleNetwork.contentServer1.wiredInOut$o[0].channel ber 0
attr mutable ""
par SimpleNetwork.contentServer1.wiredInOut$o[0].channel per 0
attr mutable ""
par SimpleNetwork.coreRouter1.wiredInOut$o[3].channel typename "\"ned.DatarateChannel\""
par SimpleNetwork.coreRouter1.wiredInOut$o[3].channel disabled false
attr mutable ""
par SimpleNetwork.coreRouter1.wiredInOut$o[3].channel delay 0s
attr mutable ""
attr unit s
par SimpleNetwork.coreRouter1.wiredInOut$o[3].channel datarate 1e+06bps
attr mutable ""
attr unit bps
par SimpleNetwork.coreRouter1.wiredInOut$o[3].channel ber 0
attr mutable ""
par SimpleNetwork.coreRouter1.wiredInOut$o[3].channel per 0
attr mutable ""
par SimpleNetwork.coreRouter2.wiredInOut$o[0].channel typename "\"ned.DatarateChannel\""
par SimpleNetwork.coreRouter2.wiredInOut$o[0].channel disabled false
attr mutable ""
par SimpleNetwork.coreRouter2.wiredInOut$o[0].channel delay 0s
attr mutable ""
attr unit s
par SimpleNetwork.coreRouter2.wiredInOut$o[0].channel datarate 1e+06bps
attr mutable ""
attr unit bps
par SimpleNetwork.coreRouter2.wiredInOut$o[0].channel ber 0
attr mutable ""
par SimpleNetwork.coreRouter2.wiredInOut$o[0].channel per 0
attr mutable ""
par SimpleNetwork.coreRouter2.wiredInOut$o[1].channel typename "\"ned.DatarateChannel\""
par SimpleNetwork.coreRouter2.wiredInOut$o[1].channel disabled false
attr mutable ""
par SimpleNetwork.coreRouter2.wiredInOut$o[1].channel delay 0s
attr mutable ""
attr unit s
par SimpleNetwork.coreRouter2.wiredInOut$o[1].channel datarate 1e+06bps
attr mutable ""
attr unit bps
par SimpleNetwork.coreRouter2.wiredInOut$o[1].channel ber 0
attr mutable ""
par SimpleNetwork.coreRouter2.wiredInOut$o[1].channel per 0
attr mutable ""
par SimpleNetwork.contentServer2.wiredInOut$o[0].channel typename "\"ned.DatarateChannel\""
par SimpleNetwork.contentServer2.wiredInOut$o[0].channel disabled false
attr mutable ""
par SimpleNetwork.contentServer2.wiredInOut$o[0].channel delay 0s
attr mutable ""
attr unit s
par SimpleNetwork.contentServer2.wiredInOut$o[0].channel datarate 1e+06bps
attr mutable ""
attr unit bps
par SimpleNetwork.contentServer2.wiredInOut$o[0].channel ber 0
attr mutable ""
par SimpleNetwork.contentServer2.wiredInOut$o[0].channel per 0
attr mutable ""
par SimpleNetwork.accessRouter.numen typename "\"inbaversim.Numen\""
par SimpleNetwork.accessRouter.fwd typename "\"inbaversim.RFC8569Forwarder\""
par SimpleNetwork.accessRouter.fwd maximumContentStoreSize 0byte
attr unit byte
par SimpleNetwork.accessRouter.wired[0] typename "\"inbaversim.WiredTransport\""
par SimpleNetwork.accessRouter.wired[0] wiredTechnology "\"Ethernet\""
par SimpleNetwork.accessRouter.wired[0] dataRate 1e+06bps
attr unit bps
par SimpleNetwork.accessRouter.wired[0] packetErrorRate 0pct
attr unit pct
par SimpleNetwork.accessRouter.wired[0] headerSize 32byte
attr unit byte
par SimpleNetwork.accessRouter.wired[1] typename "\"inbaversim.WiredTransport\""
par SimpleNetwork.accessRouter.wired[1] wiredTechnology "\"Ethernet\""
par SimpleNetwork.accessRouter.wired[1] dataRate 1e+06bps
attr unit bps
par SimpleNetwork.accessRouter.wired[1] packetErrorRate 0pct
attr unit pct
par SimpleNetwork.accessRouter.wired[1] headerSize 32byte
attr unit byte
par SimpleNetwork.accessRouter.wired[2] typename "\"inbaversim.WiredTransport\""
par SimpleNetwork.accessRouter.wired[2] wiredTechnology "\"Ethernet\""
par SimpleNetwork.accessRouter.wired[2] dataRate 1e+06bps
attr unit bps
par SimpleNetwork.accessRouter.wired[2] packetErrorRate 0pct
attr unit pct
par SimpleNetwork.accessRouter.wired[2] headerSize 32byte
attr unit byte
par SimpleNetwork.accessRouter.mob typename "\"inet.mobility.static.StationaryMobility\""
par SimpleNetwork.accessRouter.mob subjectModule "\"^\""
par SimpleNetwork.accessRouter.mob coordinateSystemModule "\"\""
par SimpleNetwork.accessRouter.mob displayStringTextFormat "\"p: %p\\nv: %v\""
attr mutable ""
par SimpleNetwork.accessRouter.mob updateDisplayString true
par SimpleNetwork.accessRouter.mob constraintAreaMinX 0m
attr unit m
par SimpleNetwork.accessRouter.mob constraintAreaMinY 0m
attr unit m
par SimpleNetwork.accessRouter.mob constraintAreaMinZ 0m
attr unit m
par SimpleNetwork.accessRouter.mob constraintAreaMaxX 400m
attr unit m
par SimpleNetwork.accessRouter.mob constraintAreaMaxY 400m
attr unit m
par SimpleNetwork.accessRouter.mob constraintAreaMaxZ 0m
attr unit m
par SimpleNetwork.accessRouter.mob initialX 261.436m
attr unit m
par SimpleNetwork.accessRouter.mob initialY 82.2087m
attr unit m
par SimpleNetwork.accessRouter.mob initialZ 0m
attr unit m
par SimpleNetwork.accessRouter.mob initialLatitude "nan deg"
attr unit deg
par SimpleNetwork.accessRouter.mob initialLongitude "nan deg"
attr unit deg
par SimpleNetwork.accessRouter.mob initialAltitude 0m
attr unit m
par SimpleNetwork.accessRouter.mob initialHeading 0deg
attr unit deg
par SimpleNetwork.accessRouter.mob initialElevation 0deg
attr unit deg
par SimpleNetwork.accessRouter.mob initialBank 0deg
attr unit deg
par SimpleNetwork.accessRouter.mob initFromDisplayString true
par SimpleNetwork.accessRouter.mob updateFromDisplayString true
par SimpleNetwork.accessRouter typename "\"inbaversim.AccessRouter\""
par SimpleNetwork.accessRouter numApps 0
par SimpleNetwork.accessRouter numWiredTransports 3
par SimpleNetwork.accessRouter numWirelessTransports 0
par SimpleNetwork.accessRouter accessRouterNumWiredTransports 3
par SimpleNetwork.accessRouter accessRouterNumWirelessTransports 0
par SimpleNetwork.accessRouter forwarder "\"RFC8569Forwarder\""
par SimpleNetwork.accessRouter ethDataRate 1e+06bps
attr unit bps
par SimpleNetwork.accessRouter ethPacketErrorRate 0pct
attr unit pct
par SimpleNetwork.accessRouter mobility "\"StationaryMobility\""
scalar SimpleNetwork.accessRouter transportTotalWirelessBytesSent:count 0
attr recordingmode count
attr source transportTotalWirelessBytesSent
scalar SimpleNetwork.accessRouter transportTotalWirelessBytesSent:mean -nan
attr recordingmode mean
attr source transportTotalWirelessBytesSent
scalar SimpleNetwork.accessRouter transportTotalWirelessBytesSent:sum 0
attr recordingmode sum
attr source transportTotalWirelessBytesSent
scalar SimpleNetwork.accessRouter transportTotalWirelessBytesReceived:count 0
attr recordingmode count
attr source transportTotalWirelessBytesReceived
scalar SimpleNetwork.accessRouter transportTotalWirelessBytesReceived:mean -nan
attr recordingmode mean
attr source transportTotalWirelessBytesReceived
scalar SimpleNetwork.accessRouter transportTotalWirelessBytesReceived:sum 0
attr recordingmode sum
attr source transportTotalWirelessBytesReceived
scalar SimpleNetwork.accessRouter transportTotalWiredBytesSent:count 3200
attr recordingmode count
attr source transportTotalWiredBytesSent
scalar SimpleNetwork.accessRouter transportTotalWiredBytesSent:mean 121.125
attr recordingmode mean
attr source transportTotalWiredBytesSent
scalar SimpleNetwork.accessRouter transportTotalWiredBytesSent:sum 387600
attr recordingmode sum
attr source transportTotalWiredBytesSent
scalar SimpleNetwork.accessRouter transportTotalWiredBytesReceived:count 1717
attr recordingmode count
attr source transportTotalWiredBytesReceived
scalar SimpleNetwork.accessRouter transportTotalWiredBytesReceived:mean 184.28421665696
attr recordingmode mean
attr source transportTotalWiredBytesReceived
scalar SimpleNetwork.accessRouter transportTotalWiredBytesReceived:sum 316416
attr recordingmode sum
attr source transportTotalWiredBytesReceived
scalar SimpleNetwork.accessRouter fwdCacheMissRatio:min 1
attr recordingmode min
attr source fwdCacheMissRatio
scalar SimpleNetwork.accessRouter fwdCacheMissRatio:max 1
attr recordingmode max
attr source fwdCacheMissRatio
scalar SimpleNetwork.accessRouter fwdCacheMissRatio:count 1483
attr recordingmode count
attr source fwdCacheMissRatio
scalar SimpleNetwork.accessRouter fwdCacheMissRatio:last 1
attr recordingmode last
attr source fwdCacheMissRatio
scalar SimpleNetwork.accessRouter fwdCacheHitRatio:min 0
attr recordingmode min
attr source fwdCacheHitRatio
scalar SimpleNetwork.accessRouter fwdCacheHitRatio:max 0
attr recordingmode max
attr source fwdCacheHitRatio
scalar SimpleNetwork.accessRouter fwdCacheHitRatio:count 1483
attr recordingmode count
attr source fwdCacheHitRatio
scalar SimpleNetwork.accessRouter fwdCacheHitRatio:last 0
attr recordingmode last
attr source fwdCacheHitRatio
scalar SimpleNetwork.accessRouter fwdPITEntryCount:min 0
attr recordingmode min
attr source fwdPITEntryCount
scalar SimpleNetwork.accessRouter fwdPITEntryCount:max 1249
attr recordingmode max
attr source fwdPITEntryCount
scalar SimpleNetwork.accessRouter fwdPITEntryCount:count 1717
attr recordingmode count
attr source fwdPITEntryCount
scalar SimpleNetwork.accessRouter fwdPITEntryCount:mean 494.41642399534
attr recordingmode mean
attr source fwdPITEntryCount
scalar SimpleNetwork.accessRouter fwdPITEntryCount:timeavg 1202.0686868792
attr recordingmode timeavg
attr source fwdPITEntryCount
scalar SimpleNetwork.accessRouter fwdPITEntryCount:last 1249
attr recordingmode last
attr source fwdPITEntryCount
scalar SimpleNetwork.accessRouter fwdFIBEntryCount:min 1
attr recordingmode min
attr source fwdFIBEntryCount
scalar SimpleNetwork.accessRouter fwdFIBEntryCount:max 1
attr recordingmode max
attr source fwdFIBEntryCount
scalar SimpleNetwork.accessRouter fwdFIBEntryCount:count 3
attr recordingmode count
attr source fwdFIBEntryCount
scalar SimpleNetwork.accessRouter fwdFIBEntryCount:mean 1
attr recordingmode mean
attr source fwdFIBEntryCount
scalar SimpleNetwork.accessRouter fwdFIBEntryCount:timeavg 1
attr recordingmode timeavg
attr source fwdFIBEntryCount
scalar SimpleNetwork.accessRouter fwdFIBEntryCount:last 1
attr recordingmode last
attr source fwdFIBEntryCount
scalar SimpleNetwork.accessRouter fwdCacheRemovalsBytes:count 0
attr recordingmode count
attr source fwdCacheRemovalsBytes
scalar SimpleNetwork.accessRouter fwdCacheRemovalsBytes:mean -nan
attr recordingmode mean
attr source fwdCacheRemovalsBytes
scalar SimpleNetwork.accessRouter fwdCacheRemovalsBytes:sum 0
attr recordingmode sum
attr source fwdCacheRemovalsBytes
scalar SimpleNetwork.accessRouter fwdCacheAdditionsBytes:count 234
attr recordingmode count
attr source fwdCacheAdditionsBytes
scalar SimpleNetwork.accessRouter fwdCacheAdditionsBytes:mean 1000
attr recordingmode mean
attr source fwdCacheAdditionsBytes
scalar SimpleNetwork.accessRouter fwdCacheAdditionsBytes:sum 234000
attr recordingmode sum
attr source fwdCacheAdditionsBytes
scalar SimpleNetwork.accessRouter fwdCacheSizeBytes:min 1000
attr recordingmode min
attr source fwdCacheSizeBytes
scalar SimpleNetwork.accessRouter fwdCacheSizeBytes:max 234000
attr recordingmode max
attr source fwdCacheSizeBytes
scalar SimpleNetwork.accessRouter fwdCacheSizeBytes:count 234
attr recordingmode count
attr source fwdCacheSizeBytes
scalar SimpleNetwork.accessRouter fwdCacheSizeBytes:mean 117500
attr recordingmode mean
attr source fwdCacheSizeBytes
scalar SimpleNetwork.accessRouter fwdCacheSizeBytes:timeavg 232978.8157386
attr recordingmode timeavg
attr source fwdCacheSizeBytes
scalar SimpleNetwork.accessRouter fwdCacheSizeBytes:last 234000
attr recordingmode last
attr source fwdCacheSizeBytes
scalar SimpleNetwork.accessRouter fwdTotalContentObjsBytesSent:count 234
attr recordingmode count
attr source fwdTotalContentObjsBytesSent
scalar SimpleNetwork.accessRouter fwdTotalContentObjsBytesSent:mean 1016
attr recordingmode mean
attr source fwdTotalContentObjsBytesSent
scalar SimpleNetwork.accessRouter fwdTotalContentObjsBytesSent:sum 237744
attr recordingmode sum
attr source fwdTotalContentObjsBytesSent
scalar SimpleNetwork.accessRouter fwdTotalInterestRtnsBytesSent:count 0
attr recordingmode count
attr source fwdTotalInterestRtnsBytesSent
scalar SimpleNetwork.accessRouter fwdTotalInterestRtnsBytesSent:mean -nan
attr recordingmode mean
attr source fwdTotalInterestRtnsBytesSent
scalar SimpleNetwork.accessRouter fwdTotalInterestRtnsBytesSent:sum 0
attr recordingmode sum
attr source fwdTotalInterestRtnsBytesSent
scalar SimpleNetwork.accessRouter fwdTotalInterestsBytesSent:count 2966
attr recordingmode count
attr source fwdTotalInterestsBytesSent
scalar SimpleNetwork.accessRouter fwdTotalInterestsBytesSent:mean 16
attr recordingmode mean
attr source fwdTotalInterestsBytesSent
scalar SimpleNetwork.accessRouter fwdTotalInterestsBytesSent:sum 47456
attr recordingmode sum
attr source fwdTotalInterestsBytesSent
scalar SimpleNetwork.accessRouter fwdTotalContentObjsBytesReceived:count 234
attr recordingmode count
attr source fwdTotalContentObjsBytesReceived
scalar SimpleNetwork.accessRouter fwdTotalContentObjsBytesReceived:mean 1016
attr recordingmode mean
attr source fwdTotalContentObjsBytesReceived
scalar SimpleNetwork.accessRouter fwdTotalContentObjsBytesReceived:sum 237744
attr recordingmode sum
attr source fwdTotalContentObjsBytesReceived
scalar SimpleNetwork.accessRouter fwdTotalInterestRtnsBytesReceived:count 0
attr recordingmode count
attr source fwdTotalInterestRtnsBytesReceived
scalar SimpleNetwork.accessRouter fwdTotalInterestRtnsBytesReceived:mean -nan
attr recordingmode mean
attr source fwdTotalInterestRtnsBytesReceived
scalar SimpleNetwork.accessRouter fwdTotalInterestRtnsBytesReceived:sum 0
attr recordingmode sum
attr source fwdTotalInterestRtnsBytesReceived
scalar SimpleNetwork.accessRouter fwdTotalInterestsBytesReceived:count 1483
attr recordingmode count
attr source fwdTotalInterestsBytesReceived
scalar SimpleNetwork.accessRouter fwdTotalInterestsBytesReceived:mean 16
attr recordingmode mean
attr source fwdTotalInterestsBytesReceived
scalar SimpleNetwork.accessRouter fwdTotalInterestsBytesReceived:sum 23728
attr recordingmode sum
attr source fwdTotalInterestsBytesReceived
scalar SimpleNetwork.accessRouter appTotalDataBytesSent:count 0
attr recordingmode count
attr source appTotalDataBytesSent
scalar SimpleNetwork.accessRouter appTotalDataBytesSent:mean -nan
attr recordingmode mean
attr source appTotalDataBytesSent
scalar SimpleNetwork.accessRouter appTotalDataBytesSent:sum 0
attr recordingmode sum
attr source appTotalDataBytesSent
scalar SimpleNetwork.accessRouter appTotalContentObjsBytesSent:count 0
attr recordingmode count
attr source appTotalContentObjsBytesSent
scalar SimpleNetwork.accessRouter appTotalContentObjsBytesSent:mean -nan
attr recordingmode mean
attr source appTotalContentObjsBytesSent
scalar SimpleNetwork.accessRouter appTotalContentObjsBytesSent:sum 0
attr recordingmode sum
attr source appTotalContentObjsBytesSent
scalar SimpleNetwork.accessRouter appTotalInterestsBytesReceived:count 0
attr recordingmode count
attr source appTotalInterestsBytesReceived
scalar SimpleNetwork.accessRouter appTotalInterestsBytesReceived:mean -nan
attr recordingmode mean
attr source appTotalInterestsBytesReceived
scalar SimpleNetwork.accessRouter appTotalInterestsBytesReceived:sum 0
attr recordingmode sum
attr source appTotalInterestsBytesReceived
scalar SimpleNetwork.accessRouter appTotalDataBytesReceived:count 0
attr recordingmode count
attr source appTotalDataBytesReceived
scalar SimpleNetwork.accessRouter appTotalDataBytesReceived:mean -nan
attr recordingmode mean
attr source appTotalDataBytesReceived
scalar SimpleNetwork.accessRouter appTotalDataBytesReceived:sum 0
attr recordingmode sum
attr source appTotalDataBytesReceived
scalar SimpleNetwork.accessRouter appTotalContentObjsBytesReceived:count 0
attr recordingmode count
attr source appTotalContentObjsBytesReceived
scalar SimpleNetwork.accessRouter appTotalContentObjsBytesReceived:mean -nan
attr recordingmode mean
attr source appTotalContentObjsBytesReceived
scalar SimpleNetwork.accessRouter appTotalContentObjsBytesReceived:sum 0
attr recordingmode sum
attr source appTotalContentObjsBytesReceived
scalar SimpleNetwork.accessRouter appRetransmissionInterestsBytesSent:count 0
attr recordingmode count
attr source appRetransmissionInterestsBytesSent
scalar SimpleNetwork.accessRouter appRetransmissionInterestsBytesSent:mean -nan
attr recordingmode mean
attr source appRetransmissionInterestsBytesSent
scalar SimpleNetwork.accessRouter appRetransmissionInterestsBytesSent:sum 0
attr recordingmode sum
attr source appRetransmissionInterestsBytesSent
scalar SimpleNetwork.accessRouter appTotalInterestsBytesSent:count 0
attr recordingmode count
attr source appTotalInterestsBytesSent
scalar SimpleNetwork.accessRouter appTotalInterestsBytesSent:mean -nan
attr recordingmode mean
attr source appTotalInterestsBytesSent
scalar SimpleNetwork.accessRouter appTotalInterestsBytesSent:sum 0
attr recordingmode sum
attr source appTotalInterestsBytesSent
scalar SimpleNetwork.accessRouter appSegmentDownloadDuration:min -nan
attr recordingmode min
attr source appSegmentDownloadDuration
scalar SimpleNetwork.accessRouter appSegmentDownloadDuration:max -nan
attr recordingmode max
attr source appSegmentDownloadDuration
scalar SimpleNetwork.accessRouter appSegmentDownloadDuration:count 0
attr recordingmode count
attr source appSegmentDownloadDuration
scalar SimpleNetwork.accessRouter appSegmentDownloadDuration:mean -nan
attr recordingmode mean
attr source appSegmentDownloadDuration
scalar SimpleNetwork.accessRouter appContentDownloadDuration:min -nan
attr recordingmode min
attr source appContentDownloadDuration
scalar SimpleNetwork.accessRouter appContentDownloadDuration:max -nan
attr recordingmode max
attr source appContentDownloadDuration
scalar SimpleNetwork.accessRouter appContentDownloadDuration:count 0
attr recordingmode count
attr source appContentDownloadDuration
scalar SimpleNetwork.accessRouter appContentDownloadDuration:mean -nan
attr recordingmode mean
attr source appContentDownloadDuration
par SimpleNetwork.wirelessAccessRouter.numen typename "\"inbaversim.Numen\""
par SimpleNetwork.wirelessAccessRouter.fwd typename "\"inbaversim.RFC8569Forwarder\""
par SimpleNetwork.wirelessAccessRouter.fwd maximumContentStoreSize 0byte
attr unit byte
par SimpleNetwork.wirelessAccessRouter.wired[0] typename "\"inbaversim.WiredTransport\""
par SimpleNetwork.wirelessAccessRouter.wired[0] wiredTechnology "\"Ethernet\""
par SimpleNetwork.wirelessAccessRouter.wired[0] dataRate 1e+06bps
attr unit bps
par SimpleNetwork.wirelessAccessRouter.wired[0] packetErrorRate 0pct
attr unit pct
par SimpleNetwork.wirelessAccessRouter.wired[0] headerSize 32byte
attr unit byte
par SimpleNetwork.wirelessAccessRouter.wireless[0] typename "\"inbaversim.WirelessTransport\""
par SimpleNetwork.wirelessAccessRouter.wireless[0] wirelessTechnology "\"WLAN\""
par SimpleNetwork.wirelessAccessRouter.wireless[0] operationMode "\"ap\""
par SimpleNetwork.wirelessAccessRouter.wireless[0] connectString "\"ccn\""
par SimpleNetwork.wirelessAccessRouter.wireless[0] wirelessRange 80meter
attr unit meter
par SimpleNetwork.wirelessAccessRouter.wireless[0] dataRate 1e+06bps
attr unit bps
par SimpleNetwork.wirelessAccessRouter.wireless[0] packetErrorRate 0pct
attr unit pct
par SimpleNetwork.wirelessAccessRouter.wireless[0] scanInterval 1s
attr unit s
par SimpleNetwork.wirelessAccessRouter.wireless[0] headerSize 32byte
attr unit byte
par SimpleNetwork.wirelessAccessRouter.wireless[0] wirelessRangeRadiusShow true
par SimpleNetwork.wirelessAccessRouter.wireless[0] wirelessRangeRadiusColor "\"black\""
par SimpleNetwork.wirelessAccessRouter.mob typename "\"inet.mobility.static.StationaryMobility\""
par SimpleNetwork.wirelessAccessRouter.mob subjectModule "\"^\""
par SimpleNetwork.wirelessAccessRouter.mob coordinateSystemModule "\"\""
par SimpleNetwork.wirelessAccessRouter.mob displayStringTextFormat "\"p: %p\\nv: %v\""
attr mutable ""
par SimpleNetwork.wirelessAccessRouter.mob updateDisplayString true
par SimpleNetwork.wirelessAccessRouter.mob constraintAreaMinX 0m
attr unit m
par SimpleNetwork.wirelessAccessRouter.mob constraintAreaMinY 0m
attr unit m
par SimpleNetwork.wirelessAccessRouter.mob constraintAreaMinZ 0m
attr unit m
par SimpleNetwork.wirelessAccessRouter.mob constraintAreaMaxX 80m
attr unit m
par SimpleNetwork.wirelessAccessRouter.mob constraintAreaMaxY 80m
attr unit m
par SimpleNetwork.wirelessAccessRouter.mob constraintAreaMaxZ 0m
attr unit m
par SimpleNetwork.wirelessAccessRouter.mob initialX 48.8306m
attr unit m
par SimpleNetwork.wirelessAccessRouter.mob initialY 76.0226m
attr unit m
par SimpleNetwork.wirelessAccessRouter.mob initialZ 0m
attr unit m
par SimpleNetwork.wirelessAccessRouter.mob initialLatitude "nan deg"
attr unit deg
par SimpleNetwork.wirelessAccessRouter.mob initialLongitude "nan deg"
attr unit deg
par SimpleNetwork.wirelessAccessRouter.mob initialAltitude 0m
attr unit m
par SimpleNetwork.wirelessAccessRouter.mob initialHeading 0deg
attr unit deg
par SimpleNetwork.wirelessAccessRouter.mob initialElevation 0deg
attr unit deg
par SimpleNetwork.wirelessAccessRouter.mob initialBank 0deg
attr unit deg
par SimpleNetwork.wirelessAccessRouter.mob initFromDisplayString false
par SimpleNetwork.wirelessAccessRouter.mob updateFromDisplayString true
par SimpleNetwork.wirelessAccessRouter typename "\"inbaversim.WirelessAccessRouter\""
par SimpleNetwork.wirelessAccessRouter numApps 0
par SimpleNetwork.wirelessAccessRouter numWiredTransports 1
par SimpleNetwork.wirelessAccessRouter numWirelessTransports 1
par SimpleNetwork.wirelessAccessRouter wirelessAccessRouterNumWiredTransports 1
par SimpleNetwork.wirelessAccessRouter wirelessAccessRouterNumWirelessTransports 1
par SimpleNetwork.wirelessAccessRouter forwarder "\"RFC8569Forwarder\""
par SimpleNetwork.wirelessAccessRouter wlanConnectString "\"ccn\""
par SimpleNetwork.wirelessAccessRouter wlanWirelessRange 80meter
attr unit meter
par SimpleNetwork.wirelessAccessRouter wlanDataRate 1e+06bps
attr unit bps
par SimpleNetwork.wirelessAccessRouter wlanPacketErrorRate 0pct
attr unit pct
par SimpleNetwork.wirelessAccessRouter ethDataRate 1e+06bps
attr unit bps
par SimpleNetwork.wirelessAccessRouter ethPacketErrorRate 0pct
attr unit pct
par SimpleNetwork.wirelessAccessRouter mobility "\"StationaryMobility\""
scalar SimpleNetwork.wirelessAccessRouter transportTotalWirelessBytesSent:count 1505
attr recordingmode count
attr source transportTotalWirelessBytesSent
scalar SimpleNetwork.wirelessAccessRouter transportTotalWirelessBytesSent:mean 892.51827242525
attr recordingmode mean
attr source transportTotalWirelessBytesSent
scalar SimpleNetwork.wirelessAccessRouter transportTotalWirelessBytesSent:sum 1343240
attr recordingmode sum
attr source transportTotalWirelessBytesSent
scalar SimpleNetwork.wirelessAccessRouter transportTotalWirelessBytesReceived:count 1279
attr recordingmode count
attr source transportTotalWirelessBytesReceived
scalar SimpleNetwork.wirelessAccessRouter transportTotalWirelessBytesReceived:mean 48
attr recordingmode mean
attr source transportTotalWirelessBytesReceived
scalar SimpleNetwork.wirelessAccessRouter transportTotalWirelessBytesReceived:sum 61392
attr recordingmode sum
attr source transportTotalWirelessBytesReceived
scalar SimpleNetwork.wirelessAccessRouter transportTotalWiredBytesSent:count 1249
attr recordingmode count
attr source transportTotalWiredBytesSent
scalar SimpleNetwork.wirelessAccessRouter transportTotalWiredBytesSent:mean 48
attr recordingmode mean
attr source transportTotalWiredBytesSent
scalar SimpleNetwork.wirelessAccessRouter transportTotalWiredBytesSent:sum 59952
attr recordingmode sum
attr source transportTotalWiredBytesSent
scalar SimpleNetwork.wirelessAccessRouter transportTotalWiredBytesReceived:count 1483
attr recordingmode count
attr source transportTotalWiredBytesReceived
scalar SimpleNetwork.wirelessAccessRouter transportTotalWiredBytesReceived:mean 890.2117329737
attr recordingmode mean
attr source transportTotalWiredBytesReceived
scalar SimpleNetwork.wirelessAccessRouter transportTotalWiredBytesReceived:sum 1320184
attr recordingmode sum
attr source transportTotalWiredBytesReceived
scalar SimpleNetwork.wirelessAccessRouter fwdCacheMissRatio:min 0.98529411764706
attr recordingmode min
attr source fwdCacheMissRatio
scalar SimpleNetwork.wirelessAccessRouter fwdCacheMissRatio:max 1
attr recordingmode max
attr source fwdCacheMissRatio
scalar SimpleNetwork.wirelessAccessRouter fwdCacheMissRatio:count 1513
attr recordingmode count
attr source fwdCacheMissRatio
scalar SimpleNetwork.wirelessAccessRouter fwdCacheMissRatio:last 0.98545935228024
attr recordingmode last
attr source fwdCacheMissRatio
scalar SimpleNetwork.wirelessAccessRouter fwdCacheHitRatio:min 0
attr recordingmode min
attr source fwdCacheHitRatio
scalar SimpleNetwork.wirelessAccessRouter fwdCacheHitRatio:max 0.014705882352941
attr recordingmode max
attr source fwdCacheHitRatio
scalar SimpleNetwork.wirelessAccessRouter fwdCacheHitRatio:count 1513
attr recordingmode count
attr source fwdCacheHitRatio
scalar SimpleNetwork.wirelessAccessRouter fwdCacheHitRatio:last 0.014540647719762
attr recordingmode last
attr source fwdCacheHitRatio
scalar SimpleNetwork.wirelessAccessRouter fwdPITEntryCount:min 1
attr recordingmode min
attr source fwdPITEntryCount
scalar SimpleNetwork.wirelessAccessRouter fwdPITEntryCount:max 235
attr recordingmode max
attr source fwdPITEntryCount
scalar SimpleNetwork.wirelessAccessRouter fwdPITEntryCount:count 2732
attr recordingmode count
attr source fwdPITEntryCount
scalar SimpleNetwork.wirelessAccessRouter fwdPITEntryCount:mean 199.56881405564
attr recordingmode mean
attr source fwdPITEntryCount
scalar SimpleNetwork.wirelessAccessRouter fwdPITEntryCount:timeavg 232.9789427193
attr recordingmode timeavg
attr source fwdPITEntryCount
scalar SimpleNetwork.wirelessAccessRouter fwdPITEntryCount:last 234
attr recordingmode last
attr source fwdPITEntryCount
scalar SimpleNetwork.wirelessAccessRouter fwdFIBEntryCount:min 1
attr recordingmode min
attr source fwdFIBEntryCount
scalar SimpleNetwork.wirelessAccessRouter fwdFIBEntryCount:max 1
attr recordingmode max
attr source fwdFIBEntryCount
scalar SimpleNetwork.wirelessAccessRouter fwdFIBEntryCount:count 2
attr recordingmode count
attr source fwdFIBEntryCount
scalar SimpleNetwork.wirelessAccessRouter fwdFIBEntryCount:mean 1
attr recordingmode mean
attr source fwdFIBEntryCount
scalar SimpleNetwork.wirelessAccessRouter fwdFIBEntryCount:timeavg 1
attr recordingmode timeavg
attr source fwdFIBEntryCount
scalar SimpleNetwork.wirelessAccessRouter fwdFIBEntryCount:last 1
attr recordingmode last
attr source fwdFIBEntryCount
scalar SimpleNetwork.wirelessAccessRouter fwdCacheRemovalsBytes:count 0
attr recordingmode count
attr source fwdCacheRemovalsBytes
scalar SimpleNetwork.wirelessAccessRouter fwdCacheRemovalsBytes:mean -nan
attr recordingmode mean
attr source fwdCacheRemovalsBytes
scalar SimpleNetwork.wirelessAccessRouter fwdCacheRemovalsBytes:sum 0
attr recordingmode sum
attr source fwdCacheRemovalsBytes
scalar SimpleNetwork.wirelessAccessRouter fwdCacheAdditionsBytes:count 1249
attr recordingmode count
attr source fwdCacheAdditionsBytes
scalar SimpleNetwork.wirelessAccessRouter fwdCacheAdditionsBytes:mean 1000
attr recordingmode mean
attr source fwdCacheAdditionsBytes
scalar SimpleNetwork.wirelessAccessRouter fwdCacheAdditionsBytes:sum 1249000
attr recordingmode sum
attr source fwdCacheAdditionsBytes
scalar SimpleNetwork.wirelessAccessRouter fwdCacheSizeBytes:min 1000
attr recordingmode min
attr source fwdCacheSizeBytes
scalar SimpleNetwork.wirelessAccessRouter fwdCacheSizeBytes:max 1249000
attr recordingmode max
attr source fwdCacheSizeBytes
scalar SimpleNetwork.wirelessAccessRouter fwdCacheSizeBytes:count 1249
attr recordingmode count
attr source fwdCacheSizeBytes
scalar SimpleNetwork.wirelessAccessRouter fwdCacheSizeBytes:mean 625000
attr recordingmode mean
attr source fwdCacheSizeBytes
scalar SimpleNetwork.wirelessAccessRouter fwdCacheSizeBytes:timeavg 1202249.0784876
attr recordingmode timeavg
attr source fwdCacheSizeBytes
scalar SimpleNetwork.wirelessAccessRouter fwdCacheSizeBytes:last 1249000
attr recordingmode last
attr source fwdCacheSizeBytes
scalar SimpleNetwork.wirelessAccessRouter fwdTotalContentObjsBytesSent:count 1271
attr recordingmode count
attr source fwdTotalContentObjsBytesSent
scalar SimpleNetwork.wirelessAccessRouter fwdTotalContentObjsBytesSent:mean 1016
attr recordingmode mean
attr source fwdTotalContentObjsBytesSent
scalar SimpleNetwork.wirelessAccessRouter fwdTotalContentObjsBytesSent:sum 1291336
attr recordingmode sum
attr source fwdTotalContentObjsBytesSent
scalar SimpleNetwork.wirelessAccessRouter fwdTotalInterestRtnsBytesSent:count 0
attr recordingmode count
attr source fwdTotalInterestRtnsBytesSent
scalar SimpleNetwork.wirelessAccessRouter fwdTotalInterestRtnsBytesSent:mean -nan
attr recordingmode mean
attr source fwdTotalInterestRtnsBytesSent
scalar SimpleNetwork.wirelessAccessRouter fwdTotalInterestRtnsBytesSent:sum 0
attr recordingmode sum
attr source fwdTotalInterestRtnsBytesSent
scalar SimpleNetwork.wirelessAccessRouter fwdTotalInterestsBytesSent:count 1483
attr recordingmode count
attr source fwdTotalInterestsBytesSent
scalar SimpleNetwork.wirelessAccessRouter fwdTotalInterestsBytesSent:mean 16
attr recordingmode mean
attr source fwdTotalInterestsBytesSent
scalar SimpleNetwork.wirelessAccessRouter fwdTotalInterestsBytesSent:sum 23728
attr recordingmode sum
attr source fwdTotalInterestsBytesSent
scalar SimpleNetwork.wirelessAccessRouter fwdTotalContentObjsBytesReceived:count 1249
attr recordingmode count
attr source fwdTotalContentObjsBytesReceived
scalar SimpleNetwork.wirelessAccessRouter fwdTotalContentObjsBytesReceived:mean 1016
attr recordingmode mean
attr source fwdTotalContentObjsBytesReceived
scalar SimpleNetwork.wirelessAccessRouter fwdTotalContentObjsBytesReceived:sum 1268984
attr recordingmode sum
attr source fwdTotalContentObjsBytesReceived
scalar SimpleNetwork.wirelessAccessRouter fwdTotalInterestRtnsBytesReceived:count 0
attr recordingmode count
attr source fwdTotalInterestRtnsBytesReceived
scalar SimpleNetwork.wirelessAccessRouter fwdTotalInterestRtnsBytesReceived:mean -nan
attr recordingmode mean
attr source fwdTotalInterestRtnsBytesReceived
scalar SimpleNetwork.wirelessAccessRouter fwdTotalInterestRtnsBytesReceived:sum 0
attr recordingmode sum
attr source fwdTotalInterestRtnsBytesReceived
scalar SimpleNetwork.wirelessAccessRouter fwdTotalInterestsBytesReceived:count 1513
attr recordingmode count
attr source fwdTotalInterestsBytesReceived
scalar SimpleNetwork.wirelessAccessRouter fwdTotalInterestsBytesReceived:mean 16
attr recordingmode mean
attr source fwdTotalInterestsBytesReceived
scalar SimpleNetwork.wirelessAccessRouter fwdTotalInterestsBytesReceived:sum 24208
attr recordingmode sum
attr source fwdTotalInterestsBytesReceived
scalar SimpleNetwork.wirelessAccessRouter appTotalDataBytesSent:count 0
attr recordingmode count
attr source appTotalDataBytesSent
scalar SimpleNetwork.wirelessAccessRouter appTotalDataBytesSent:mean -nan
attr recordingmode mean
attr source appTotalDataBytesSent
scalar SimpleNetwork.wirelessAccessRouter appTotalDataBytesSent:sum 0
attr recordingmode sum
attr source appTotalDataBytesSent
scalar SimpleNetwork.wirelessAccessRouter appTotalContentObjsBytesSent:count 0
attr recordingmode count
attr source appTotalContentObjsBytesSent
scalar SimpleNetwork.wirelessAccessRouter appTotalContentObjsBytesSent:mean -nan
attr recordingmode mean
attr source appTotalContentObjsBytesSent
scalar SimpleNetwork.wirelessAccessRouter appTotalContentObjsBytesSent:sum 0
attr recordingmode sum
attr source appTotalContentObjsBytesSent
scalar SimpleNetwork.wirelessAccessRouter appTotalInterestsBytesReceived:count 0
attr recordingmode count
attr source appTotalInterestsBytesReceived
scalar SimpleNetwork.wirelessAccessRouter appTotalInterestsBytesReceived:mean -nan
attr recordingmode mean
attr source appTotalInterestsBytesReceived
scalar SimpleNetwork.wirelessAccessRouter appTotalInterestsBytesReceived:sum 0
attr recordingmode sum
attr source appTotalInterestsBytesReceived
scalar SimpleNetwork.wirelessAccessRouter appTotalDataBytesReceived:count 0
attr recordingmode count
attr source appTotalDataBytesReceived
scalar SimpleNetwork.wirelessAccessRouter appTotalDataBytesReceived:mean -nan
attr recordingmode mean
attr source appTotalDataBytesReceived
scalar SimpleNetwork.wirelessAccessRouter appTotalDataBytesReceived:sum 0
attr recordingmode sum
attr source appTotalDataBytesReceived
scalar SimpleNetwork.wirelessAccessRouter appTotalContentObjsBytesReceived:count 0
attr recordingmode count
attr source appTotalContentObjsBytesReceived
scalar SimpleNetwork.wirelessAccessRouter appTotalContentObjsBytesReceived:mean -nan
attr recordingmode mean
attr source appTotalContentObjsBytesReceived
scalar SimpleNetwork.wirelessAccessRouter appTotalContentObjsBytesReceived:sum 0
attr recordingmode sum
attr source appTotalContentObjsBytesReceived
scalar SimpleNetwork.wirelessAccessRouter appRetransmissionInterestsBytesSent:count 0
attr recordingmode count
attr source appRetransmissionInterestsBytesSent
scalar SimpleNetwork.wirelessAccessRouter appRetransmissionInterestsBytesSent:mean -nan
attr recordingmode mean
attr source appRetransmissionInterestsBytesSent
scalar SimpleNetwork.wirelessAccessRouter appRetransmissionInterestsBytesSent:sum 0
attr recordingmode sum
attr source appRetransmissionInterestsBytesSent
scalar SimpleNetwork.wirelessAccessRouter appTotalInterestsBytesSent:count 0
attr recordingmode count
attr source appTotalInterestsBytesSent
scalar SimpleNetwork.wirelessAccessRouter appTotalInterestsBytesSent:mean -nan
attr recordingmode mean
attr source appTotalInterestsBytesSent
scalar SimpleNetwork.wirelessAccessRouter appTotalInterestsBytesSent:sum 0
attr recordingmode sum
attr source appTotalInterestsBytesSent
scalar SimpleNetwork.wirelessAccessRouter appSegmentDownloadDuration:min -nan
attr recordingmode min
attr source appSegmentDownloadDuration
scalar SimpleNetwork.wirelessAccessRouter appSegmentDownloadDuration:max -nan
attr recordingmode max
attr source appSegmentDownloadDuration
scalar SimpleNetwork.wirelessAccessRouter appSegmentDownloadDuration:count 0
attr recordingmode count
attr source appSegmentDownloadDuration
scalar SimpleNetwork.wirelessAccessRouter appSegmentDownloadDuration:mean -nan
attr recordingmode mean
attr source appSegmentDownloadDuration
scalar SimpleNetwork.wirelessAccessRouter appContentDownloadDuration:min -nan
attr recordingmode min
attr source appContentDownloadDuration
scalar SimpleNetwork.wirelessAccessRouter appContentDownloadDuration:max -nan
attr recordingmode max
attr source appContentDownloadDuration
scalar SimpleNetwork.wirelessAccessRouter appContentDownloadDuration:count 0
attr recordingmode count
attr source appContentDownloadDuration
scalar SimpleNetwork.wirelessAccessRouter appContentDownloadDuration:mean -nan
attr recordingmode mean
attr source appContentDownloadDuration
par SimpleNetwork.wiredNode1.numen typename "\"inbaversim.Numen\""
par SimpleNetwork.wiredNode1.app[0] typename "\"inbaversim.ContentDownloadApp\""
par SimpleNetwork.wiredNode1.app[0] interContentDownloadInterval "uniform(100s, 150s)"
attr unit s
par SimpleNetwork.wiredNode1.app[0] requestedPrefixNames "\"ccnx://relativity.com/\""
par SimpleNetwork.wiredNode1.app[0] dataNamePrefix "\"rltv\""
par SimpleNetwork.wiredNode1.app[0] nextFileSuffix "intuniform(0, 99)"
par SimpleNetwork.wiredNode1.app[0] maxHopsAllowed 16
par SimpleNetwork.wiredNode1.app[0] interestRetransmitTimeout 120s
attr unit s
par SimpleNetwork.wiredNode1.fwd typename "\"inbaversim.RFC8569Forwarder\""
par SimpleNetwork.wiredNode1.fwd maximumContentStoreSize 0byte
attr unit byte
par SimpleNetwork.wiredNode1.wired[0] typename "\"inbaversim.WiredTransport\""
par SimpleNetwork.wiredNode1.wired[0] wiredTechnology "\"Ethernet\""
par SimpleNetwork.wiredNode1.wired[0] dataRate 1e+06bps
attr unit bps
par SimpleNetwork.wiredNode1.wired[0] packetErrorRate 0pct
attr unit pct
par SimpleNetwork.wiredNode1.wired[0] headerSize 32byte
attr unit byte
par SimpleNetwork.wiredNode1.mob typename "\"inet.mobility.static.StationaryMobility\""
par SimpleNetwork.wiredNode1.mob subjectModule "\"^\""
par SimpleNetwork.wiredNode1.mob coordinateSystemModule "\"\""
par SimpleNetwork.wiredNode1.mob displayStringTextFormat "\"p: %p\\nv: %v\""
attr mutable ""
par SimpleNetwork.wiredNode1.mob updateDisplayString true
par SimpleNetwork.wiredNode1.mob constraintAreaMinX 0m
attr unit m
par SimpleNetwork.wiredNode1.mob constraintAreaMinY 0m
attr unit m
par SimpleNetwork.wiredNode1.mob constraintAreaMinZ 0m
attr unit m
par SimpleNetwork.wiredNode1.mob constraintAreaMaxX 400m
attr unit m
par SimpleNetwork.wiredNode1.mob constraintAreaMaxY 400m
attr unit m
par SimpleNetwork.wiredNode1.mob constraintAreaMaxZ 0m
attr unit m
par SimpleNetwork.wiredNode1.mob initialX 192.877m
attr unit m
par SimpleNetwork.wiredNode1.mob initialY 144.321m
attr unit m
par SimpleNetwork.wiredNode1.mob initialZ 0m
attr unit m
par SimpleNetwork.wiredNode1.mob initialLatitude "nan deg"
attr unit deg
par SimpleNetwork.wiredNode1.mob initialLongitude "nan deg"
attr unit deg
par SimpleNetwork.wiredNode1.mob initialAltitude 0m
attr unit m
par SimpleNetwork.wiredNode1.mob initialHeading 0deg
attr unit deg
par SimpleNetwork.wiredNode1.mob initialElevation 0deg
attr unit deg
par SimpleNetwork.wiredNode1.mob initialBank 0deg
attr unit deg
par SimpleNetwork.wiredNode1.mob initFromDisplayString true
par SimpleNetwork.wiredNode1.mob updateFromDisplayString true
par SimpleNetwork.wiredNode1 typename "\"inbaversim.WiredNode\""
par SimpleNetwork.wiredNode1 numApps 1
par SimpleNetwork.wiredNode1 numWiredTransports 1
par SimpleNetwork.wiredNode1 numWirelessTransports 0
par SimpleNetwork.wiredNode1 wiredNodeNumWiredTransports 1
par SimpleNetwork.wiredNode1 wiredNodeNumWirelessTransports 0
par SimpleNetwork.wiredNode1 forwarder "\"RFC8569Forwarder\""
par SimpleNetwork.wiredNode1 ethDataRate 1e+06bps
attr unit bps
par SimpleNetwork.wiredNode1 ethPacketErrorRate 0pct
attr unit pct
par SimpleNetwork.wiredNode1 mobility "\"StationaryMobility\""
scalar SimpleNetwork.wiredNode1 transportTotalWirelessBytesSent:count 0
attr recordingmode count
attr source transportTotalWirelessBytesSent
scalar SimpleNetwork.wiredNode1 transportTotalWirelessBytesSent:mean -nan
attr recordingmode mean
attr source transportTotalWirelessBytesSent
scalar SimpleNetwork.wiredNode1 transportTotalWirelessBytesSent:sum 0
attr recordingmode sum
attr source transportTotalWirelessBytesSent
scalar SimpleNetwork.wiredNode1 transportTotalWirelessBytesReceived:count 0
attr recordingmode count
attr source transportTotalWirelessBytesReceived
scalar SimpleNetwork.wiredNode1 transportTotalWirelessBytesReceived:mean -nan
attr recordingmode mean
attr source transportTotalWirelessBytesReceived
scalar SimpleNetwork.wiredNode1 transportTotalWirelessBytesReceived:sum 0
attr recordingmode sum
attr source transportTotalWirelessBytesReceived
scalar SimpleNetwork.wiredNode1 transportTotalWiredBytesSent:count 183
attr recordingmode count
attr source transportTotalWiredBytesSent
scalar SimpleNetwork.wiredNode1 transportTotalWiredBytesSent:mean 48
attr recordingmode mean
attr source transportTotalWiredBytesSent
scalar SimpleNetwork.wiredNode1 transportTotalWiredBytesSent:sum 8784
attr recordingmode sum
attr source transportTotalWiredBytesSent
scalar SimpleNetwork.wiredNode1 transportTotalWiredBytesReceived:count 1483
attr recordingmode count
attr source transportTotalWiredBytesReceived
scalar SimpleNetwork.wiredNode1 transportTotalWiredBytesReceived:mean 171.39851652057
attr recordingmode mean
attr source transportTotalWiredBytesReceived
scalar SimpleNetwork.wiredNode1 transportTotalWiredBytesReceived:sum 254184
attr recordingmode sum
attr source transportTotalWiredBytesReceived
scalar SimpleNetwork.wiredNode1 fwdCacheMissRatio:min 1
attr recordingmode min
attr source fwdCacheMissRatio
scalar SimpleNetwork.wiredNode1 fwdCacheMissRatio:max 1
attr recordingmode max
attr source fwdCacheMissRatio
scalar SimpleNetwork.wiredNode1 fwdCacheMissRatio:count 2907
attr recordingmode count
attr source fwdCacheMissRatio
scalar SimpleNetwork.wiredNode1 fwdCacheMissRatio:last 1
attr recordingmode last
attr source fwdCacheMissRatio
scalar SimpleNetwork.wiredNode1 fwdCacheHitRatio:min 0
attr recordingmode min
attr source fwdCacheHitRatio
scalar SimpleNetwork.wiredNode1 fwdCacheHitRatio:max 0
attr recordingmode max
attr source fwdCacheHitRatio
scalar SimpleNetwork.wiredNode1 fwdCacheHitRatio:count 2907
attr recordingmode count
attr source fwdCacheHitRatio
scalar SimpleNetwork.wiredNode1 fwdCacheHitRatio:last 0
attr recordingmode last
attr source fwdCacheHitRatio
scalar SimpleNetwork.wiredNode1 fwdPITEntryCount:min 1
attr recordingmode min
attr source fwdPITEntryCount
scalar SimpleNetwork.wiredNode1 fwdPITEntryCount:max 1300
attr recordingmode max
attr source fwdPITEntryCount
scalar SimpleNetwork.wiredNode1 fwdPITEntryCount:count 1666
attr recordingmode count
attr source fwdPITEntryCount
scalar SimpleNetwork.wiredNode1 fwdPITEntryCount:mean 555.61164465786
attr recordingmode mean
attr source fwdPITEntryCount
scalar SimpleNetwork.wiredNode1 fwdPITEntryCount:timeavg 1253.0057991623
attr recordingmode timeavg
attr source fwdPITEntryCount
scalar SimpleNetwork.wiredNode1 fwdPITEntryCount:last 1300
attr recordingmode last
attr source fwdPITEntryCount
scalar SimpleNetwork.wiredNode1 fwdFIBEntryCount:min 1
attr recordingmode min
attr source fwdFIBEntryCount
scalar SimpleNetwork.wiredNode1 fwdFIBEntryCount:max 1
attr recordingmode max
attr source fwdFIBEntryCount
scalar SimpleNetwork.wiredNode1 fwdFIBEntryCount:count 1
attr recordingmode count
attr source fwdFIBEntryCount
scalar SimpleNetwork.wiredNode1 fwdFIBEntryCount:mean 1
attr recordingmode mean
attr source fwdFIBEntryCount
scalar SimpleNetwork.wiredNode1 fwdFIBEntryCount:timeavg 1
attr recordingmode timeavg
attr source fwdFIBEntryCount
scalar SimpleNetwork.wiredNode1 fwdFIBEntryCount:last 1
attr recordingmode last
attr source fwdFIBEntryCount
scalar SimpleNetwork.wiredNode1 fwdCacheRemovalsBytes:count 0
attr recordingmode count
attr source fwdCacheRemovalsBytes
scalar SimpleNetwork.wiredNode1 fwdCacheRemovalsBytes:mean -nan
attr recordingmode mean
attr source fwdCacheRemovalsBytes
scalar SimpleNetwork.wiredNode1 fwdCacheRemovalsBytes:sum 0
attr recordingmode sum
attr source fwdCacheRemovalsBytes
scalar SimpleNetwork.wiredNode1 fwdCacheAdditionsBytes:count 183
attr recordingmode count
attr source fwdCacheAdditionsBytes
scalar SimpleNetwork.wiredNode1 fwdCacheAdditionsBytes:mean 1000
attr recordingmode mean
attr source fwdCacheAdditionsBytes
scalar SimpleNetwork.wiredNode1 fwdCacheAdditionsBytes:sum 183000
attr recordingmode sum
attr source fwdCacheAdditionsBytes
scalar SimpleNetwork.wiredNode1 fwdCacheSizeBytes:min 1000
attr recordingmode min
attr source fwdCacheSizeBytes
scalar SimpleNetwork.wiredNode1 fwdCacheSizeBytes:max 183000
attr recordingmode max
attr source fwdCacheSizeBytes
scalar SimpleNetwork.wiredNode1 fwdCacheSizeBytes:count 183
attr recordingmode count
attr source fwdCacheSizeBytes
scalar SimpleNetwork.wiredNode1 fwdCacheSizeBytes:mean 92000
attr recordingmode mean
attr source fwdCacheSizeBytes
scalar SimpleNetwork.wiredNode1 fwdCacheSizeBytes:timeavg 182046.82819371
attr recordingmode timeavg
attr source fwdCacheSizeBytes
scalar SimpleNetwork.wiredNode1 fwdCacheSizeBytes:last 183000
attr recordingmode last
attr source fwdCacheSizeBytes
scalar SimpleNetwork.wiredNode1 fwdTotalContentObjsBytesSent:count 0
attr recordingmode count
attr source fwdTotalContentObjsBytesSent
scalar SimpleNetwork.wiredNode1 fwdTotalContentObjsBytesSent:mean -nan
attr recordingmode mean
attr source fwdTotalContentObjsBytesSent
scalar SimpleNetwork.wiredNode1 fwdTotalContentObjsBytesSent:sum 0
attr recordingmode sum
attr source fwdTotalContentObjsBytesSent
scalar SimpleNetwork.wiredNode1 fwdTotalInterestRtnsBytesSent:count 0
attr recordingmode count
attr source fwdTotalInterestRtnsBytesSent
scalar SimpleNetwork.wiredNode1 fwdTotalInterestRtnsBytesSent:mean -nan
attr recordingmode mean
attr source fwdTotalInterestRtnsBytesSent
scalar SimpleNetwork.wiredNode1 fwdTotalInterestRtnsBytesSent:sum 0
attr recordingmode sum
attr source fwdTotalInterestRtnsBytesSent
scalar SimpleNetwork.wiredNode1 fwdTotalInterestsBytesSent:count 183
attr recordingmode count
attr source fwdTotalInterestsBytesSent
scalar SimpleNetwork.wiredNode1 fwdTotalInterestsBytesSent:mean 16
attr recordingmode mean
attr source fwdTotalInterestsBytesSent
scalar SimpleNetwork.wiredNode1 fwdTotalInterestsBytesSent:sum 2928
attr recordingmode sum
attr source fwdTotalInterestsBytesSent
scalar SimpleNetwork.wiredNode1 fwdTotalContentObjsBytesReceived:count 183
attr recordingmode count
attr source fwdTotalContentObjsBytesReceived
scalar SimpleNetwork.wiredNode1 fwdTotalContentObjsBytesReceived:mean 1016
attr recordingmode mean
attr source fwdTotalContentObjsBytesReceived
scalar SimpleNetwork.wiredNode1 fwdTotalContentObjsBytesReceived:sum 185928
attr recordingmode sum
attr source fwdTotalContentObjsBytesReceived
scalar SimpleNetwork.wiredNode1 fwdTotalInterestRtnsBytesReceived:count 0
attr recordingmode count
attr source fwdTotalInterestRtnsBytesReceived
scalar SimpleNetwork.wiredNode1 fwdTotalInterestRtnsBytesReceived:mean -nan
attr recordingmode mean
attr source fwdTotalInterestRtnsBytesReceived
scalar SimpleNetwork.wiredNode1 fwdTotalInterestRtnsBytesReceived:sum 0
attr recordingmode sum
attr source fwdTotalInterestRtnsBytesReceived
scalar SimpleNetwork.wiredNode1 fwdTotalInterestsBytesReceived:count 1300
attr recordingmode count
attr source fwdTotalInterestsBytesReceived
scalar SimpleNetwork.wiredNode1 fwdTotalInterestsBytesReceived:mean 16
attr recordingmode mean
attr source fwdTotalInterestsBytesReceived
scalar SimpleNetwork.wiredNode1 fwdTotalInterestsBytesReceived:sum 20800
attr recordingmode sum
attr source fwdTotalInterestsBytesReceived
scalar SimpleNetwork.wiredNode1 appTotalDataBytesSent:count 0
attr recordingmode count
attr source appTotalDataBytesSent
scalar SimpleNetwork.wiredNode1 appTotalDataBytesSent:mean -nan
attr recordingmode mean
attr source appTotalDataBytesSent
scalar SimpleNetwork.wiredNode1 appTotalDataBytesSent:sum 0
attr recordingmode sum
attr source appTotalDataBytesSent
scalar SimpleNetwork.wiredNode1 appTotalContentObjsBytesSent:count 0
attr recordingmode count
attr source appTotalContentObjsBytesSent
scalar SimpleNetwork.wiredNode1 appTotalContentObjsBytesSent:mean -nan
attr recordingmode mean
attr source appTotalContentObjsBytesSent
scalar SimpleNetwork.wiredNode1 appTotalContentObjsBytesSent:sum 0
attr recordingmode sum
attr source appTotalContentObjsBytesSent
scalar SimpleNetwork.wiredNode1 appTotalInterestsBytesReceived:count 0
attr recordingmode count
attr source appTotalInterestsBytesReceived
scalar SimpleNetwork.wiredNode1 appTotalInterestsBytesReceived:mean -nan
attr recordingmode mean
attr source appTotalInterestsBytesReceived
scalar SimpleNetwork.wiredNode1 appTotalInterestsBytesReceived:sum 0
attr recordingmode sum
attr source appTotalInterestsBytesReceived
scalar SimpleNetwork.wiredNode1 appTotalDataBytesReceived:count 183
attr recordingmode count
attr source appTotalDataBytesReceived
scalar SimpleNetwork.wiredNode1 appTotalDataBytesReceived:mean 1000
attr recordingmode mean
attr source appTotalDataBytesReceived
scalar SimpleNetwork.wiredNode1 appTotalDataBytesReceived:sum 183000
attr recordingmode sum
attr source appTotalDataBytesReceived
scalar SimpleNetwork.wiredNode1 appTotalContentObjsBytesReceived:count 183
attr recordingmode count
attr source appTotalContentObjsBytesReceived
scalar SimpleNetwork.wiredNode1 appTotalContentObjsBytesReceived:mean 1016
attr recordingmode mean
attr source appTotalContentObjsBytesReceived
scalar SimpleNetwork.wiredNode1 appTotalContentObjsBytesReceived:sum 185928
attr recordingmode sum
attr source appTotalContentObjsBytesReceived
scalar SimpleNetwork.wiredNode1 appRetransmissionInterestsBytesSent:count 1423
attr recordingmode count
attr source appRetransmissionInterestsBytesSent
scalar SimpleNetwork.wiredNode1 appRetransmissionInterestsBytesSent:mean 16
attr recordingmode mean
attr source appRetransmissionInterestsBytesSent
scalar SimpleNetwork.wiredNode1 appRetransmissionInterestsBytesSent:sum 22768
attr recordingmode sum
attr source appRetransmissionInterestsBytesSent
scalar SimpleNetwork.wiredNode1 appTotalInterestsBytesSent:count 1607
attr recordingmode count
attr source appTotalInterestsBytesSent
scalar SimpleNetwork.wiredNode1 appTotalInterestsBytesSent:mean 16
attr recordingmode mean
attr source appTotalInterestsBytesSent
scalar SimpleNetwork.wiredNode1 appTotalInterestsBytesSent:sum 25712
attr recordingmode sum
attr source appTotalInterestsBytesSent
scalar SimpleNetwork.wiredNode1 appSegmentDownloadDuration:min 0.035072
attr recordingmode min
attr source appSegmentDownloadDuration
scalar SimpleNetwork.wiredNode1 appSegmentDownloadDuration:max 0.035072
attr recordingmode max
attr source appSegmentDownloadDuration
scalar SimpleNetwork.wiredNode1 appSegmentDownloadDuration:count 183
attr recordingmode count
attr source appSegmentDownloadDuration
scalar SimpleNetwork.wiredNode1 appSegmentDownloadDuration:mean 0.035072
attr recordingmode mean
attr source appSegmentDownloadDuration
scalar SimpleNetwork.wiredNode1 appContentDownloadDuration:min 0.210432
attr recordingmode min
attr source appContentDownloadDuration
scalar SimpleNetwork.wiredNode1 appContentDownloadDuration:max 0.70144
attr recordingmode max
attr source appContentDownloadDuration
scalar SimpleNetwork.wiredNode1 appContentDownloadDuration:count 15
attr recordingmode count
attr source appContentDownloadDuration
scalar SimpleNetwork.wiredNode1 appContentDownloadDuration:mean 0.4278784
attr recordingmode mean
attr source appContentDownloadDuration
par SimpleNetwork.wiredNode2.numen typename "\"inbaversim.Numen\""
par SimpleNetwork.wiredNode2.app[0] typename "\"inbaversim.ContentDownloadApp\""
par SimpleNetwork.wiredNode2.app[0] interContentDownloadInterval "uniform(100s, 150s)"
attr unit s
par SimpleNetwork.wiredNode2.app[0] requestedPrefixNames "\"ccnx://relativity.com/\""
par SimpleNetwork.wiredNode2.app[0] dataNamePrefix "\"rltv\""
par SimpleNetwork.wiredNode2.app[0] nextFileSuffix "intuniform(0, 99)"
par SimpleNetwork.wiredNode2.app[0] maxHopsAllowed 16
par SimpleNetwork.wiredNode2.app[0] interestRetransmitTimeout 120s
attr unit s
par SimpleNetwork.wiredNode2.fwd typename "\"inbaversim.RFC8569Forwarder\""
par SimpleNetwork.wiredNode2.fwd maximumContentStoreSize 0byte
attr unit byte
par SimpleNetwork.wiredNode2.wired[0] typename "\"inbaversim.WiredTransport\""
par SimpleNetwork.wiredNode2.wired[0] wiredTechnology "\"Ethernet\""
par SimpleNetwork.wiredNode2.wired[0] dataRate 1e+06bps
attr unit bps
par SimpleNetwork.wiredNode2.wired[0] packetErrorRate 0pct
attr unit pct
par SimpleNetwork.wiredNode2.wired[0] headerSize 32byte
attr unit byte
par SimpleNetwork.wiredNode2.mob typename "\"inet.mobility.static.StationaryMobility\""
par SimpleNetwork.wiredNode2.mob subjectModule "\"^\""
par SimpleNetwork.wiredNode2.mob coordinateSystemModule "\"\""
par SimpleNetwork.wiredNode2.mob displayStringTextFormat "\"p: %p\\nv: %v\""
attr mutable ""
par SimpleNetwork.wiredNode2.mob updateDisplayString true
par SimpleNetwork.wiredNode2.mob constraintAreaMinX 0m
attr unit m
par SimpleNetwork.wiredNode2.mob constraintAreaMinY 0m
attr unit m
par SimpleNetwork.wiredNode2.mob constraintAreaMinZ 0m
attr unit m
par SimpleNetwork.wiredNode2.mob constraintAreaMaxX 400m
attr unit m
par SimpleNetwork.wiredNode2.mob constraintAreaMaxY 400m
attr unit m
par SimpleNetwork.wiredNode2.mob constraintAreaMaxZ 0m
attr unit m
par SimpleNetwork.wiredNode2.mob initialX 339.996m
attr unit m
par SimpleNetwork.wiredNode2.mob initialY 84.9331m
attr unit m
par SimpleNetwork.wiredNode2.mob initialZ 0m
attr unit m
par SimpleNetwork.wiredNode2.mob initialLatitude "nan deg"
attr unit deg
par SimpleNetwork.wiredNode2.mob initialLongitude "nan deg"
attr unit deg
par SimpleNetwork.wiredNode2.mob initialAltitude 0m
attr unit m
par SimpleNetwork.wiredNode2.mob initialHeading 0deg
attr unit deg
par SimpleNetwork.wiredNode2.mob initialElevation 0deg
attr unit deg
par SimpleNetwork.wiredNode2.mob initialBank 0deg
attr unit deg
par SimpleNetwork.wiredNode2.mob initFromDisplayString true
par SimpleNetwork.wiredNode2.mob updateFromDisplayString true
par SimpleNetwork.wiredNode2 typename "\"inbaversim.WiredNode\""
par SimpleNetwork.wiredNode2 numApps 1
par SimpleNetwork.wiredNode2 numWiredTransports 1
par SimpleNetwork.wiredNode2 numWirelessTransports 0
par SimpleNetwork.wiredNode2 wiredNodeNumWiredTransports 1
par SimpleNetwork.wiredNode2 wiredNodeNumWirelessTransports 0
par SimpleNetwork.wiredNode2 forwarder "\"RFC8569Forwarder\""
par SimpleNetwork.wiredNode2 ethDataRate 1e+06bps
attr unit bps
par SimpleNetwork.wiredNode2 ethPacketErrorRate 0pct
attr unit pct
par SimpleNetwork.wiredNode2 mobility "\"StationaryMobility\""
scalar SimpleNetwork.wiredNode2 transportTotalWirelessBytesSent:count 0
attr recordingmode count
attr source transportTotalWirelessBytesSent
scalar SimpleNetwork.wiredNode2 transportTotalWirelessBytesSent:mean -nan
attr recordingmode mean
attr source transportTotalWirelessBytesSent
scalar SimpleNetwork.wiredNode2 transportTotalWirelessBytesSent:sum 0
attr recordingmode sum
attr source transportTotalWirelessBytesSent
scalar SimpleNetwork.wiredNode2 transportTotalWirelessBytesReceived:count 0
attr recordingmode count
attr source transportTotalWirelessBytesReceived
scalar SimpleNetwork.wiredNode2 transportTotalWirelessBytesReceived:mean -nan
attr recordingmode mean
attr source transportTotalWirelessBytesReceived
scalar SimpleNetwork.wiredNode2 transportTotalWirelessBytesReceived:sum 0
attr recordingmode sum
attr source transportTotalWirelessBytesReceived
scalar SimpleNetwork.wiredNode2 transportTotalWiredBytesSent:count 51
attr recordingmode count
attr source transportTotalWiredBytesSent
scalar SimpleNetwork.wiredNode2 transportTotalWiredBytesSent:mean 48
attr recordingmode mean
attr source transportTotalWiredBytesSent
scalar SimpleNetwork.wiredNode2 transportTotalWiredBytesSent:sum 2448
attr recordingmode sum
attr source transportTotalWiredBytesSent
scalar SimpleNetwork.wiredNode2 transportTotalWiredBytesReceived:count 1483
attr recordingmode count
attr source transportTotalWiredBytesReceived
scalar SimpleNetwork.wiredNode2 transportTotalWiredBytesReceived:mean 82.389750505732
attr recordingmode mean
attr source transportTotalWiredBytesReceived
scalar SimpleNetwork.wiredNode2 transportTotalWiredBytesReceived:sum 122184
attr recordingmode sum
attr source transportTotalWiredBytesReceived
scalar SimpleNetwork.wiredNode2 fwdCacheMissRatio:min 1
attr recordingmode min
attr source fwdCacheMissRatio
scalar SimpleNetwork.wiredNode2 fwdCacheMissRatio:max 1
attr recordingmode max
attr source fwdCacheMissRatio
scalar SimpleNetwork.wiredNode2 fwdCacheMissRatio:count 2918
attr recordingmode count
attr source fwdCacheMissRatio
scalar SimpleNetwork.wiredNode2 fwdCacheMissRatio:last 1
attr recordingmode last
attr source fwdCacheMissRatio
scalar SimpleNetwork.wiredNode2 fwdCacheHitRatio:min 0
attr recordingmode min
attr source fwdCacheHitRatio
scalar SimpleNetwork.wiredNode2 fwdCacheHitRatio:max 0
attr recordingmode max
attr source fwdCacheHitRatio
scalar SimpleNetwork.wiredNode2 fwdCacheHitRatio:count 2918
attr recordingmode count
attr source fwdCacheHitRatio
scalar SimpleNetwork.wiredNode2 fwdCacheHitRatio:last 0
attr recordingmode last
attr source fwdCacheHitRatio
scalar SimpleNetwork.wiredNode2 fwdPITEntryCount:min 0
attr recordingmode min
attr source fwdPITEntryCount
scalar SimpleNetwork.wiredNode2 fwdPITEntryCount:max 1432
attr recordingmode max
attr source fwdPITEntryCount
scalar SimpleNetwork.wiredNode2 fwdPITEntryCount:count 1534
attr recordingmode count
attr source fwdPITEntryCount
scalar SimpleNetwork.wiredNode2 fwdPITEntryCount:mean 673.39178617992
attr recordingmode mean
attr source fwdPITEntryCount
scalar SimpleNetwork.wiredNode2 fwdPITEntryCount:timeavg 1384.1103603622
attr recordingmode timeavg
attr source fwdPITEntryCount
scalar SimpleNetwork.wiredNode2 fwdPITEntryCount:last 1432
attr recordingmode last
attr source fwdPITEntryCount
scalar SimpleNetwork.wiredNode2 fwdFIBEntryCount:min 1
attr recordingmode min
attr source fwdFIBEntryCount
scalar SimpleNetwork.wiredNode2 fwdFIBEntryCount:max 1
attr recordingmode max
attr source fwdFIBEntryCount
scalar SimpleNetwork.wiredNode2 fwdFIBEntryCount:count 1
attr recordingmode count
attr source fwdFIBEntryCount
scalar SimpleNetwork.wiredNode2 fwdFIBEntryCount:mean 1
attr recordingmode mean
attr source fwdFIBEntryCount
scalar SimpleNetwork.wiredNode2 fwdFIBEntryCount:timeavg 1
attr recordingmode timeavg
attr source fwdFIBEntryCount
scalar SimpleNetwork.wiredNode2 fwdFIBEntryCount:last 1
attr recordingmode last
attr source fwdFIBEntryCount
scalar SimpleNetwork.wiredNode2 fwdCacheRemovalsBytes:count 0
attr recordingmode count
attr source fwdCacheRemovalsBytes
scalar SimpleNetwork.wiredNode2 fwdCacheRemovalsBytes:mean -nan
attr recordingmode mean
attr source fwdCacheRemovalsBytes
scalar SimpleNetwork.wiredNode2 fwdCacheRemovalsBytes:sum 0
attr recordingmode sum
attr source fwdCacheRemovalsBytes
scalar SimpleNetwork.wiredNode2 fwdCacheAdditionsBytes:count 51
attr recordingmode count
attr source fwdCacheAdditionsBytes
scalar SimpleNetwork.wiredNode2 fwdCacheAdditionsBytes:mean 1000
attr recordingmode mean
attr source fwdCacheAdditionsBytes
scalar SimpleNetwork.wiredNode2 fwdCacheAdditionsBytes:sum 51000
attr recordingmode sum
attr source fwdCacheAdditionsBytes
scalar SimpleNetwork.wiredNode2 fwdCacheSizeBytes:min 1000
attr recordingmode min
attr source fwdCacheSizeBytes
scalar SimpleNetwork.wiredNode2 fwdCacheSizeBytes:max 51000
attr recordingmode max
attr source fwdCacheSizeBytes
scalar SimpleNetwork.wiredNode2 fwdCacheSizeBytes:count 51
attr recordingmode count
attr source fwdCacheSizeBytes
scalar SimpleNetwork.wiredNode2 fwdCacheSizeBytes:mean 26000
attr recordingmode mean
attr source fwdCacheSizeBytes
scalar SimpleNetwork.wiredNode2 fwdCacheSizeBytes:timeavg 50937.110851792
attr recordingmode timeavg
attr source fwdCacheSizeBytes
scalar SimpleNetwork.wiredNode2 fwdCacheSizeBytes:last 51000
attr recordingmode last
attr source fwdCacheSizeBytes
scalar SimpleNetwork.wiredNode2 fwdTotalContentObjsBytesSent:count 0
attr recordingmode count
attr source fwdTotalContentObjsBytesSent
scalar SimpleNetwork.wiredNode2 fwdTotalContentObjsBytesSent:mean -nan
attr recordingmode mean
attr source fwdTotalContentObjsBytesSent
scalar SimpleNetwork.wiredNode2 fwdTotalContentObjsBytesSent:sum 0
attr recordingmode sum
attr source fwdTotalContentObjsBytesSent
scalar SimpleNetwork.wiredNode2 fwdTotalInterestRtnsBytesSent:count 0
attr recordingmode count
attr source fwdTotalInterestRtnsBytesSent
scalar SimpleNetwork.wiredNode2 fwdTotalInterestRtnsBytesSent:mean -nan
attr recordingmode mean
attr source fwdTotalInterestRtnsBytesSent
scalar SimpleNetwork.wiredNode2 fwdTotalInterestRtnsBytesSent:sum 0
attr recordingmode sum
attr source fwdTotalInterestRtnsBytesSent
scalar SimpleNetwork.wiredNode2 fwdTotalInterestsBytesSent:count 51
attr recordingmode count
attr source fwdTotalInterestsBytesSent
scalar SimpleNetwork.wiredNode2 fwdTotalInterestsBytesSent:mean 16
attr recordingmode mean
attr source fwdTotalInterestsBytesSent
scalar SimpleNetwork.wiredNode2 fwdTotalInterestsBytesSent:sum 816
attr recordingmode sum
attr source fwdTotalInterestsBytesSent
scalar SimpleNetwork.wiredNode2 fwdTotalContentObjsBytesReceived:count 51
attr recordingmode count
attr source fwdTotalContentObjsBytesReceived
scalar SimpleNetwork.wiredNode2 fwdTotalContentObjsBytesReceived:mean 1016
attr recordingmode mean
attr source fwdTotalContentObjsBytesReceived
scalar SimpleNetwork.wiredNode2 fwdTotalContentObjsBytesReceived:sum 51816
attr recordingmode sum
attr source fwdTotalContentObjsBytesReceived
scalar SimpleNetwork.wiredNode2 fwdTotalInterestRtnsBytesReceived:count 0
attr recordingmode count
attr source fwdTotalInterestRtnsBytesReceived
scalar SimpleNetwork.wiredNode2 fwdTotalInterestRtnsBytesReceived:mean -nan
attr recordingmode mean
attr source fwdTotalInterestRtnsBytesReceived
scalar SimpleNetwork.wiredNode2 fwdTotalInterestRtnsBytesReceived:sum 0
attr recordingmode sum
attr source fwdTotalInterestRtnsBytesReceived
scalar SimpleNetwork.wiredNode2 fwdTotalInterestsBytesReceived:count 1432
attr recordingmode count
attr source fwdTotalInterestsBytesReceived
scalar SimpleNetwork.wiredNode2 fwdTotalInterestsBytesReceived:mean 16
attr recordingmode mean
attr source fwdTotalInterestsBytesReceived
scalar SimpleNetwork.wiredNode2 fwdTotalInterestsBytesReceived:sum 22912
attr recordingmode sum
attr source fwdTotalInterestsBytesReceived
scalar SimpleNetwork.wiredNode2 appTotalDataBytesSent:count 0
attr recordingmode count
attr source appTotalDataBytesSent
scalar SimpleNetwork.wiredNode2 appTotalDataBytesSent:mean -nan
attr recordingmode mean
attr source appTotalDataBytesSent
scalar SimpleNetwork.wiredNode2 appTotalDataBytesSent:sum 0
attr recordingmode sum
attr source appTotalDataBytesSent
scalar SimpleNetwork.wiredNode2 appTotalContentObjsBytesSent:count 0
attr recordingmode count
attr source appTotalContentObjsBytesSent
scalar SimpleNetwork.wiredNode2 appTotalContentObjsBytesSent:mean -nan
attr recordingmode mean
attr source appTotalContentObjsBytesSent
scalar SimpleNetwork.wiredNode2 appTotalContentObjsBytesSent:sum 0
attr recordingmode sum
attr source appTotalContentObjsBytesSent
scalar SimpleNetwork.wiredNode2 appTotalInterestsBytesReceived:count 0
attr recordingmode count
attr source appTotalInterestsBytesReceived
scalar SimpleNetwork.wiredNode2 appTotalInterestsBytesReceived:mean -nan
attr recordingmode mean
attr source appTotalInterestsBytesReceived
scalar SimpleNetwork.wiredNode2 appTotalInterestsBytesReceived:sum 0
attr recordingmode sum
attr source appTotalInterestsBytesReceived
scalar SimpleNetwork.wiredNode2 appTotalDataBytesReceived:count 51
attr recordingmode count
attr source appTotalDataBytesReceived
scalar SimpleNetwork.wiredNode2 appTotalDataBytesReceived:mean 1000
attr recordingmode mean
attr source appTotalDataBytesReceived
scalar SimpleNetwork.wiredNode2 appTotalDataBytesReceived:sum 51000
attr recordingmode sum
attr source appTotalDataBytesReceived
scalar SimpleNetwork.wiredNode2 appTotalContentObjsBytesReceived:count 51
attr recordingmode count
attr source appTotalContentObjsBytesReceived
scalar SimpleNetwork.wiredNode2 appTotalContentObjsBytesReceived:mean 1016
attr recordingmode mean
attr source appTotalContentObjsBytesReceived
scalar SimpleNetwork.wiredNode2 appTotalContentObjsBytesReceived:sum 51816
attr recordingmode sum
attr source appTotalContentObjsBytesReceived
scalar SimpleNetwork.wiredNode2 appRetransmissionInterestsBytesSent:count 1434
attr recordingmode count
attr source appRetransmissionInterestsBytesSent
scalar SimpleNetwork.wiredNode2 appRetransmissionInterestsBytesSent:mean 16
attr recordingmode mean
attr source appRetransmissionInterestsBytesSent
scalar SimpleNetwork.wiredNode2 appRetransmissionInterestsBytesSent:sum 22944
attr recordingmode sum
attr source appRetransmissionInterestsBytesSent
scalar SimpleNetwork.wiredNode2 appTotalInterestsBytesSent:count 1486
attr recordingmode count
attr source appTotalInterestsBytesSent
scalar SimpleNetwork.wiredNode2 appTotalInterestsBytesSent:mean 16
attr recordingmode mean
attr source appTotalInterestsBytesSent
scalar SimpleNetwork.wiredNode2 appTotalInterestsBytesSent:sum 23776
attr recordingmode sum
attr source appTotalInterestsBytesSent
scalar SimpleNetwork.wiredNode2 appSegmentDownloadDuration:min 0.035072
attr recordingmode min
attr source appSegmentDownloadDuration
scalar SimpleNetwork.wiredNode2 appSegmentDownloadDuration:max 0.035072
attr recordingmode max
attr source appSegmentDownloadDuration
scalar SimpleNetwork.wiredNode2 appSegmentDownloadDuration:count 51
attr recordingmode count
attr source appSegmentDownloadDuration
scalar SimpleNetwork.wiredNode2 appSegmentDownloadDuration:mean 0.035072
attr recordingmode mean
attr source appSegmentDownloadDuration
scalar SimpleNetwork.wiredNode2 appContentDownloadDuration:min 0.245504
attr recordingmode min
attr source appContentDownloadDuration
scalar SimpleNetwork.wiredNode2 appContentDownloadDuration:max 0.561152
attr recordingmode max
attr source appContentDownloadDuration
scalar SimpleNetwork.wiredNode2 appContentDownloadDuration:count 4
attr recordingmode count
attr source appContentDownloadDuration
scalar SimpleNetwork.wiredNode2 appContentDownloadDuration:mean 0.447168
attr recordingmode mean
attr source appContentDownloadDuration
par SimpleNetwork.wirelessNode[0].numen typename "\"inbaversim.Numen\""
par SimpleNetwork.wirelessNode[0].app[0] typename "\"inbaversim.ContentDownloadApp\""
par SimpleNetwork.wirelessNode[0].app[0] interContentDownloadInterval "uniform(100s, 150s)"
attr unit s
par SimpleNetwork.wirelessNode[0].app[0] requestedPrefixNames "\"ccnx://spacetime.com/\""
par SimpleNetwork.wirelessNode[0].app[0] dataNamePrefix "\"sptm\""
par SimpleNetwork.wirelessNode[0].app[0] nextFileSuffix "intuniform(0, 99)"
par SimpleNetwork.wirelessNode[0].app[0] maxHopsAllowed 16
par SimpleNetwork.wirelessNode[0].app[0] interestRetransmitTimeout 120s
attr unit s
par SimpleNetwork.wirelessNode[0].fwd typename "\"inbaversim.RFC8569Forwarder\""
par SimpleNetwork.wirelessNode[0].fwd maximumContentStoreSize 0byte
attr unit byte
par SimpleNetwork.wirelessNode[0].wireless[0] typename "\"inbaversim.WirelessTransport\""
par SimpleNetwork.wirelessNode[0].wireless[0] wirelessTechnology "\"WLAN\""
par SimpleNetwork.wirelessNode[0].wireless[0] operationMode "\"client\""
par SimpleNetwork.wirelessNode[0].wireless[0] connectString "\"ccn\""
par SimpleNetwork.wirelessNode[0].wireless[0] wirelessRange 80meter
attr unit meter
par SimpleNetwork.wirelessNode[0].wireless[0] dataRate 1e+06bps
attr unit bps
par SimpleNetwork.wirelessNode[0].wireless[0] packetErrorRate 0pct
attr unit pct
par SimpleNetwork.wirelessNode[0].wireless[0] scanInterval 1s
attr unit s
par SimpleNetwork.wirelessNode[0].wireless[0] headerSize 32byte
attr unit byte
par SimpleNetwork.wirelessNode[0].wireless[0] wirelessRangeRadiusShow false
par SimpleNetwork.wirelessNode[0].wireless[0] wirelessRangeRadiusColor "\"black\""
par SimpleNetwork.wirelessNode[0].wireless[1] typename "\"inbaversim.WirelessTransport\""
par SimpleNetwork.wirelessNode[0].wireless[1] wirelessTechnology "\"Bluetooth\""
par SimpleNetwork.wirelessNode[0].wireless[1] operationMode "\"direct\""
par SimpleNetwork.wirelessNode[0].wireless[1] connectString "\"ccn\""
par SimpleNetwork.wirelessNode[0].wireless[1] wirelessRange 60meter
attr unit meter
par SimpleNetwork.wirelessNode[0].wireless[1] dataRate 1e+06bps
attr unit bps
par SimpleNetwork.wirelessNode[0].wireless[1] packetErrorRate 0pct
attr unit pct
par SimpleNetwork.wirelessNode[0].wireless[1] scanInterval 1s
attr unit s
par SimpleNetwork.wirelessNode[0].wireless[1] headerSize 32byte
attr unit byte
par SimpleNetwork.wirelessNode[0].wireless[1] wirelessRangeRadiusShow false
par SimpleNetwork.wirelessNode[0].wireless[1] wirelessRangeRadiusColor "\"black\""
par SimpleNetwork.wirelessNode[0].mob typename "\"inet.mobility.single.RandomWaypointMobility\""
par SimpleNetwork.wirelessNode[0].mob subjectModule "\"^\""
par SimpleNetwork.wirelessNode[0].mob coordinateSystemModule "\"\""
par SimpleNetwork.wirelessNode[0].mob displayStringTextFormat "\"p: %p\\nv: %v\""
attr mutable ""
par SimpleNetwork.wirelessNode[0].mob updateDisplayString true
par SimpleNetwork.wirelessNode[0].mob constraintAreaMinX 0m
attr unit m
par SimpleNetwork.wirelessNode[0].mob constraintAreaMinY 0m
attr unit m
par SimpleNetwork.wirelessNode[0].mob constraintAreaMinZ 0m
attr unit m
par SimpleNetwork.wirelessNode[0].mob constraintAreaMaxX 80m
attr unit m
par SimpleNetwork.wirelessNode[0].mob constraintAreaMaxY 80m
attr unit m
par SimpleNetwork.wirelessNode[0].mob constraintAreaMaxZ 0m
attr unit m
par SimpleNetwork.wirelessNode[0].mob updateInterval 1s
attr unit s
par SimpleNetwork.wirelessNode[0].mob faceForward true
par SimpleNetwork.wirelessNode[0].mob initialX 3.25677m
attr unit m
par SimpleNetwork.wirelessNode[0].mob initialY 27.5392m
attr unit m
par SimpleNetwork.wirelessNode[0].mob initialZ 0m
attr unit m
par SimpleNetwork.wirelessNode[0].mob initFromDisplayString false
par SimpleNetwork.wirelessNode[0].mob speed "uniform(1mps, 2mps)"
attr unit mps
par SimpleNetwork.wirelessNode[0].mob waitTime "uniform(1200s, 1800s)"
attr unit s
par SimpleNetwork.wirelessNode[0] typename "\"inbaversim.WirelessNode\""
par SimpleNetwork.wirelessNode[0] numApps 1
par SimpleNetwork.wirelessNode[0] numWiredTransports 0
par SimpleNetwork.wirelessNode[0] numWirelessTransports 2
par SimpleNetwork.wirelessNode[0] wirelessNodeNumWiredTransports 0
par SimpleNetwork.wirelessNode[0] wirelessNodeNumWirelessTransports 2
par SimpleNetwork.wirelessNode[0] forwarder "\"RFC8569Forwarder\""
par SimpleNetwork.wirelessNode[0] wlanConnectString "\"ccn\""
par SimpleNetwork.wirelessNode[0] wlanWirelessRange 80meter
attr unit meter
par SimpleNetwork.wirelessNode[0] wlanDataRate 1e+06bps
attr unit bps
par SimpleNetwork.wirelessNode[0] wlanPacketErrorRate 0pct
attr unit pct
par SimpleNetwork.wirelessNode[0] btConnectString "\"ccn\""
par SimpleNetwork.wirelessNode[0] btWirelessRange 60meter
attr unit meter
par SimpleNetwork.wirelessNode[0] btDataRate 1e+06bps
attr unit bps
par SimpleNetwork.wirelessNode[0] btPacketErrorRate 0pct
attr unit pct
par SimpleNetwork.wirelessNode[0] mobility "\"RandomWaypointMobility\""
scalar SimpleNetwork.wirelessNode[0] transportTotalWirelessBytesSent:count 596
attr recordingmode count
attr source transportTotalWirelessBytesSent
scalar SimpleNetwork.wirelessNode[0] transportTotalWirelessBytesSent:mean 48
attr recordingmode mean
attr source transportTotalWirelessBytesSent
scalar SimpleNetwork.wirelessNode[0] transportTotalWirelessBytesSent:sum 28608
attr recordingmode sum
attr source transportTotalWirelessBytesSent
scalar SimpleNetwork.wirelessNode[0] transportTotalWirelessBytesReceived:count 1483
attr recordingmode count
attr source transportTotalWirelessBytesReceived
scalar SimpleNetwork.wirelessNode[0] transportTotalWirelessBytesReceived:mean 890.2117329737
attr recordingmode mean
attr source transportTotalWirelessBytesReceived
[...]
scalar SimpleNetwork.contentServer1 appTotalContentObjsBytesSent:sum 1268984
attr recordingmode sum
attr source appTotalContentObjsBytesSent
scalar SimpleNetwork.contentServer1 appTotalInterestsBytesReceived:count 1249
attr recordingmode count
attr source appTotalInterestsBytesReceived
scalar SimpleNetwork.contentServer1 appTotalInterestsBytesReceived:mean 16
attr recordingmode mean
attr source appTotalInterestsBytesReceived
scalar SimpleNetwork.contentServer1 appTotalInterestsBytesReceived:sum 19984
attr recordingmode sum
attr source appTotalInterestsBytesReceived
scalar SimpleNetwork.contentServer1 appTotalDataBytesReceived:count 0
attr recordingmode count
attr source appTotalDataBytesReceived
scalar SimpleNetwork.contentServer1 appTotalDataBytesReceived:mean -nan
attr recordingmode mean
attr source appTotalDataBytesReceived
scalar SimpleNetwork.contentServer1 appTotalDataBytesReceived:sum 0
attr recordingmode sum
attr source appTotalDataBytesReceived
scalar SimpleNetwork.contentServer1 appTotalContentObjsBytesReceived:count 0
attr recordingmode count
attr source appTotalContentObjsBytesReceived
scalar SimpleNetwork.contentServer1 appTotalContentObjsBytesReceived:mean -nan
attr recordingmode mean
attr source appTotalContentObjsBytesReceived
scalar SimpleNetwork.contentServer1 appTotalContentObjsBytesReceived:sum 0
attr recordingmode sum
attr source appTotalContentObjsBytesReceived
scalar SimpleNetwork.contentServer1 appRetransmissionInterestsBytesSent:count 0
attr recordingmode count
attr source appRetransmissionInterestsBytesSent
scalar SimpleNetwork.contentServer1 appRetransmissionInterestsBytesSent:mean -nan
attr recordingmode mean
attr source appRetransmissionInterestsBytesSent
scalar SimpleNetwork.contentServer1 appRetransmissionInterestsBytesSent:sum 0
attr recordingmode sum
attr source appRetransmissionInterestsBytesSent
scalar SimpleNetwork.contentServer1 appTotalInterestsBytesSent:count 0
attr recordingmode count
attr source appTotalInterestsBytesSent
scalar SimpleNetwork.contentServer1 appTotalInterestsBytesSent:mean -nan
attr recordingmode mean
attr source appTotalInterestsBytesSent
scalar SimpleNetwork.contentServer1 appTotalInterestsBytesSent:sum 0
attr recordingmode sum
attr source appTotalInterestsBytesSent
scalar SimpleNetwork.contentServer1 appSegmentDownloadDuration:min -nan
attr recordingmode min
attr source appSegmentDownloadDuration
scalar SimpleNetwork.contentServer1 appSegmentDownloadDuration:max -nan
attr recordingmode max
attr source appSegmentDownloadDuration
scalar SimpleNetwork.contentServer1 appSegmentDownloadDuration:count 0
attr recordingmode count
attr source appSegmentDownloadDuration
scalar SimpleNetwork.contentServer1 appSegmentDownloadDuration:mean -nan
attr recordingmode mean
attr source appSegmentDownloadDuration
scalar SimpleNetwork.contentServer1 appContentDownloadDuration:min -nan
attr recordingmode min
attr source appContentDownloadDuration
scalar SimpleNetwork.contentServer1 appContentDownloadDuration:max -nan
attr recordingmode max
attr source appContentDownloadDuration
scalar SimpleNetwork.contentServer1 appContentDownloadDuration:count 0
attr recordingmode count
attr source appContentDownloadDuration
scalar SimpleNetwork.contentServer1 appContentDownloadDuration:mean -nan
attr recordingmode mean
attr source appContentDownloadDuration
par SimpleNetwork.contentServer2.numen typename "\"inbaversim.Numen\""
par SimpleNetwork.contentServer2.app[0] typename "\"inbaversim.ContentHostApp\""
par SimpleNetwork.contentServer2.app[0] hostedPrefixNames "\"ccnx://relativity.com/\""
par SimpleNetwork.contentServer2.app[0] dataNamePrefix "\"rltv\""
par SimpleNetwork.contentServer2.app[0] segmentSize 1000byte
attr unit byte
par SimpleNetwork.contentServer2.app[0] numSegmentsPerFile "intuniform(5, 20)"
par SimpleNetwork.contentServer2.app[0] cacheTime 7200s
attr unit s
par SimpleNetwork.contentServer2.fwd typename "\"inbaversim.RFC8569Forwarder\""
par SimpleNetwork.contentServer2.fwd maximumContentStoreSize 0byte
attr unit byte
par SimpleNetwork.contentServer2.wired[0] typename "\"inbaversim.WiredTransport\""
par SimpleNetwork.contentServer2.wired[0] wiredTechnology "\"Ethernet\""
par SimpleNetwork.contentServer2.wired[0] dataRate 1e+06bps
attr unit bps
par SimpleNetwork.contentServer2.wired[0] packetErrorRate 0pct
attr unit pct
par SimpleNetwork.contentServer2.wired[0] headerSize 32byte
attr unit byte
par SimpleNetwork.contentServer2.mob typename "\"inet.mobility.static.StationaryMobility\""
par SimpleNetwork.contentServer2.mob subjectModule "\"^\""
par SimpleNetwork.contentServer2.mob coordinateSystemModule "\"\""
par SimpleNetwork.contentServer2.mob displayStringTextFormat "\"p: %p\\nv: %v\""
attr mutable ""
par SimpleNetwork.contentServer2.mob updateDisplayString true
par SimpleNetwork.contentServer2.mob constraintAreaMinX 0m
attr unit m
par SimpleNetwork.contentServer2.mob constraintAreaMinY 0m
attr unit m
par SimpleNetwork.contentServer2.mob constraintAreaMinZ 0m
attr unit m
par SimpleNetwork.contentServer2.mob constraintAreaMaxX 400m
attr unit m
par SimpleNetwork.contentServer2.mob constraintAreaMaxY 400m
attr unit m
par SimpleNetwork.contentServer2.mob constraintAreaMaxZ 0m
attr unit m
par SimpleNetwork.contentServer2.mob initialX 8.47828m
attr unit m
par SimpleNetwork.contentServer2.mob initialY 297.416m
attr unit m
par SimpleNetwork.contentServer2.mob initialZ 0m
attr unit m
par SimpleNetwork.contentServer2.mob initialLatitude "nan deg"
attr unit deg
par SimpleNetwork.contentServer2.mob initialLongitude "nan deg"
attr unit deg
par SimpleNetwork.contentServer2.mob initialAltitude 0m
attr unit m
par SimpleNetwork.contentServer2.mob initialHeading 0deg
attr unit deg
par SimpleNetwork.contentServer2.mob initialElevation 0deg
attr unit deg
par SimpleNetwork.contentServer2.mob initialBank 0deg
attr unit deg
par SimpleNetwork.contentServer2.mob initFromDisplayString true
par SimpleNetwork.contentServer2.mob updateFromDisplayString true
par SimpleNetwork.contentServer2 typename "\"inbaversim.ContentServer\""
par SimpleNetwork.contentServer2 numApps 1
par SimpleNetwork.contentServer2 numWiredTransports 1
par SimpleNetwork.contentServer2 numWirelessTransports 0
par SimpleNetwork.contentServer2 contentServerNumWiredTransports 1
par SimpleNetwork.contentServer2 contentServerNumWirelessTransports 0
par SimpleNetwork.contentServer2 forwarder "\"RFC8569Forwarder\""
par SimpleNetwork.contentServer2 ethDataRate 1e+06bps
attr unit bps
par SimpleNetwork.contentServer2 ethPacketErrorRate 0pct
attr unit pct
par SimpleNetwork.contentServer2 mobility "\"StationaryMobility\""
scalar SimpleNetwork.contentServer2 transportTotalWirelessBytesSent:count 0
attr recordingmode count
attr source transportTotalWirelessBytesSent
scalar SimpleNetwork.contentServer2 transportTotalWirelessBytesSent:mean -nan
attr recordingmode mean
attr source transportTotalWirelessBytesSent
scalar SimpleNetwork.contentServer2 transportTotalWirelessBytesSent:sum 0
attr recordingmode sum
attr source transportTotalWirelessBytesSent
scalar SimpleNetwork.contentServer2 transportTotalWirelessBytesReceived:count 0
attr recordingmode count
attr source transportTotalWirelessBytesReceived
scalar SimpleNetwork.contentServer2 transportTotalWirelessBytesReceived:mean -nan
attr recordingmode mean
attr source transportTotalWirelessBytesReceived
scalar SimpleNetwork.contentServer2 transportTotalWirelessBytesReceived:sum 0
attr recordingmode sum
attr source transportTotalWirelessBytesReceived
scalar SimpleNetwork.contentServer2 transportTotalWiredBytesSent:count 234
attr recordingmode count
attr source transportTotalWiredBytesSent
scalar SimpleNetwork.contentServer2 transportTotalWiredBytesSent:mean 1048
attr recordingmode mean
attr source transportTotalWiredBytesSent
scalar SimpleNetwork.contentServer2 transportTotalWiredBytesSent:sum 245232
attr recordingmode sum
attr source transportTotalWiredBytesSent
scalar SimpleNetwork.contentServer2 transportTotalWiredBytesReceived:count 1483
attr recordingmode count
attr source transportTotalWiredBytesReceived
scalar SimpleNetwork.contentServer2 transportTotalWiredBytesReceived:mean 48
attr recordingmode mean
attr source transportTotalWiredBytesReceived
scalar SimpleNetwork.contentServer2 transportTotalWiredBytesReceived:sum 71184
attr recordingmode sum
attr source transportTotalWiredBytesReceived
scalar SimpleNetwork.contentServer2 fwdCacheMissRatio:min 1
attr recordingmode min
attr source fwdCacheMissRatio
scalar SimpleNetwork.contentServer2 fwdCacheMissRatio:max 1
attr recordingmode max
attr source fwdCacheMissRatio
scalar SimpleNetwork.contentServer2 fwdCacheMissRatio:count 1483
attr recordingmode count
attr source fwdCacheMissRatio
scalar SimpleNetwork.contentServer2 fwdCacheMissRatio:last 1
attr recordingmode last
attr source fwdCacheMissRatio
scalar SimpleNetwork.contentServer2 fwdCacheHitRatio:min 0
attr recordingmode min
attr source fwdCacheHitRatio
scalar SimpleNetwork.contentServer2 fwdCacheHitRatio:max 0
attr recordingmode max
attr source fwdCacheHitRatio
scalar SimpleNetwork.contentServer2 fwdCacheHitRatio:count 1483
attr recordingmode count
attr source fwdCacheHitRatio
scalar SimpleNetwork.contentServer2 fwdCacheHitRatio:last 0
attr recordingmode last
attr source fwdCacheHitRatio
scalar SimpleNetwork.contentServer2 fwdPITEntryCount:min 0
attr recordingmode min
attr source fwdPITEntryCount
scalar SimpleNetwork.contentServer2 fwdPITEntryCount:max 1249
attr recordingmode max
attr source fwdPITEntryCount
scalar SimpleNetwork.contentServer2 fwdPITEntryCount:count 1717
attr recordingmode count
attr source fwdPITEntryCount
scalar SimpleNetwork.contentServer2 fwdPITEntryCount:mean 494.41642399534
attr recordingmode mean
attr source fwdPITEntryCount
scalar SimpleNetwork.contentServer2 fwdPITEntryCount:timeavg 1202.0686564784
attr recordingmode timeavg
attr source fwdPITEntryCount
scalar SimpleNetwork.contentServer2 fwdPITEntryCount:last 1249
attr recordingmode last
attr source fwdPITEntryCount
scalar SimpleNetwork.contentServer2 fwdFIBEntryCount:min 1
attr recordingmode min
attr source fwdFIBEntryCount
scalar SimpleNetwork.contentServer2 fwdFIBEntryCount:max 2
attr recordingmode max
attr source fwdFIBEntryCount
scalar SimpleNetwork.contentServer2 fwdFIBEntryCount:count 2
attr recordingmode count
attr source fwdFIBEntryCount
scalar SimpleNetwork.contentServer2 fwdFIBEntryCount:mean 1.5
attr recordingmode mean
attr source fwdFIBEntryCount
scalar SimpleNetwork.contentServer2 fwdFIBEntryCount:timeavg 2
attr recordingmode timeavg
attr source fwdFIBEntryCount
scalar SimpleNetwork.contentServer2 fwdFIBEntryCount:last 2
attr recordingmode last
attr source fwdFIBEntryCount
scalar SimpleNetwork.contentServer2 fwdCacheRemovalsBytes:count 0
attr recordingmode count
attr source fwdCacheRemovalsBytes
scalar SimpleNetwork.contentServer2 fwdCacheRemovalsBytes:mean -nan
attr recordingmode mean
attr source fwdCacheRemovalsBytes
scalar SimpleNetwork.contentServer2 fwdCacheRemovalsBytes:sum 0
attr recordingmode sum
attr source fwdCacheRemovalsBytes
scalar SimpleNetwork.contentServer2 fwdCacheAdditionsBytes:count 234
attr recordingmode count
attr source fwdCacheAdditionsBytes
scalar SimpleNetwork.contentServer2 fwdCacheAdditionsBytes:mean 1000
attr recordingmode mean
attr source fwdCacheAdditionsBytes
scalar SimpleNetwork.contentServer2 fwdCacheAdditionsBytes:sum 234000
attr recordingmode sum
attr source fwdCacheAdditionsBytes
scalar SimpleNetwork.contentServer2 fwdCacheSizeBytes:min 1000
attr recordingmode min
attr source fwdCacheSizeBytes
scalar SimpleNetwork.contentServer2 fwdCacheSizeBytes:max 234000
attr recordingmode max
attr source fwdCacheSizeBytes
scalar SimpleNetwork.contentServer2 fwdCacheSizeBytes:count 234
attr recordingmode count
attr source fwdCacheSizeBytes
scalar SimpleNetwork.contentServer2 fwdCacheSizeBytes:mean 117500
attr recordingmode mean
attr source fwdCacheSizeBytes
scalar SimpleNetwork.contentServer2 fwdCacheSizeBytes:timeavg 232978.81588733
attr recordingmode timeavg
attr source fwdCacheSizeBytes
scalar SimpleNetwork.contentServer2 fwdCacheSizeBytes:last 234000
attr recordingmode last
attr source fwdCacheSizeBytes
scalar SimpleNetwork.contentServer2 fwdTotalContentObjsBytesSent:count 234
attr recordingmode count
attr source fwdTotalContentObjsBytesSent
scalar SimpleNetwork.contentServer2 fwdTotalContentObjsBytesSent:mean 1016
attr recordingmode mean
attr source fwdTotalContentObjsBytesSent
scalar SimpleNetwork.contentServer2 fwdTotalContentObjsBytesSent:sum 237744
attr recordingmode sum
attr source fwdTotalContentObjsBytesSent
scalar SimpleNetwork.contentServer2 fwdTotalInterestRtnsBytesSent:count 0
attr recordingmode count
attr source fwdTotalInterestRtnsBytesSent
scalar SimpleNetwork.contentServer2 fwdTotalInterestRtnsBytesSent:mean -nan
attr recordingmode mean
attr source fwdTotalInterestRtnsBytesSent
scalar SimpleNetwork.contentServer2 fwdTotalInterestRtnsBytesSent:sum 0
attr recordingmode sum
attr source fwdTotalInterestRtnsBytesSent
scalar SimpleNetwork.contentServer2 fwdTotalInterestsBytesSent:count 0
attr recordingmode count
attr source fwdTotalInterestsBytesSent
scalar SimpleNetwork.contentServer2 fwdTotalInterestsBytesSent:mean -nan
attr recordingmode mean
attr source fwdTotalInterestsBytesSent
scalar SimpleNetwork.contentServer2 fwdTotalInterestsBytesSent:sum 0
attr recordingmode sum
attr source fwdTotalInterestsBytesSent
scalar SimpleNetwork.contentServer2 fwdTotalContentObjsBytesReceived:count 0
attr recordingmode count
attr source fwdTotalContentObjsBytesReceived
scalar SimpleNetwork.contentServer2 fwdTotalContentObjsBytesReceived:mean -nan
attr recordingmode mean
attr source fwdTotalContentObjsBytesReceived
scalar SimpleNetwork.contentServer2 fwdTotalContentObjsBytesReceived:sum 0
attr recordingmode sum
attr source fwdTotalContentObjsBytesReceived
scalar SimpleNetwork.contentServer2 fwdTotalInterestRtnsBytesReceived:count 0
attr recordingmode count
attr source fwdTotalInterestRtnsBytesReceived
scalar SimpleNetwork.contentServer2 fwdTotalInterestRtnsBytesReceived:mean -nan
attr recordingmode mean
attr source fwdTotalInterestRtnsBytesReceived
scalar SimpleNetwork.contentServer2 fwdTotalInterestRtnsBytesReceived:sum 0
attr recordingmode sum
attr source fwdTotalInterestRtnsBytesReceived
scalar SimpleNetwork.contentServer2 fwdTotalInterestsBytesReceived:count 1483
attr recordingmode count
attr source fwdTotalInterestsBytesReceived
scalar SimpleNetwork.contentServer2 fwdTotalInterestsBytesReceived:mean 16
attr recordingmode mean
attr source fwdTotalInterestsBytesReceived
scalar SimpleNetwork.contentServer2 fwdTotalInterestsBytesReceived:sum 23728
attr recordingmode sum
attr source fwdTotalInterestsBytesReceived
scalar SimpleNetwork.contentServer2 appTotalDataBytesSent:count 234
attr recordingmode count
attr source appTotalDataBytesSent
scalar SimpleNetwork.contentServer2 appTotalDataBytesSent:mean 1000
attr recordingmode mean
attr source appTotalDataBytesSent
scalar SimpleNetwork.contentServer2 appTotalDataBytesSent:sum 234000
attr recordingmode sum
attr source appTotalDataBytesSent
scalar SimpleNetwork.contentServer2 appTotalContentObjsBytesSent:count 234
attr recordingmode count
attr source appTotalContentObjsBytesSent
scalar SimpleNetwork.contentServer2 appTotalContentObjsBytesSent:mean 1016
attr recordingmode mean
attr source appTotalContentObjsBytesSent
scalar SimpleNetwork.contentServer2 appTotalContentObjsBytesSent:sum 237744
attr recordingmode sum
attr source appTotalContentObjsBytesSent
scalar SimpleNetwork.contentServer2 appTotalInterestsBytesReceived:count 234
attr recordingmode count
attr source appTotalInterestsBytesReceived
scalar SimpleNetwork.contentServer2 appTotalInterestsBytesReceived:mean 16
attr recordingmode mean
attr source appTotalInterestsBytesReceived
scalar SimpleNetwork.contentServer2 appTotalInterestsBytesReceived:sum 3744
attr recordingmode sum
attr source appTotalInterestsBytesReceived
scalar SimpleNetwork.contentServer2 appTotalDataBytesReceived:count 0
attr recordingmode count
attr source appTotalDataBytesReceived
scalar SimpleNetwork.contentServer2 appTotalDataBytesReceived:mean -nan
attr recordingmode mean
attr source appTotalDataBytesReceived
scalar SimpleNetwork.contentServer2 appTotalDataBytesReceived:sum 0
attr recordingmode sum
attr source appTotalDataBytesReceived
scalar SimpleNetwork.contentServer2 appTotalContentObjsBytesReceived:count 0
attr recordingmode count
attr source appTotalContentObjsBytesReceived
scalar SimpleNetwork.contentServer2 appTotalContentObjsBytesReceived:mean -nan
attr recordingmode mean
attr source appTotalContentObjsBytesReceived
scalar SimpleNetwork.contentServer2 appTotalContentObjsBytesReceived:sum 0
attr recordingmode sum
attr source appTotalContentObjsBytesReceived
scalar SimpleNetwork.contentServer2 appRetransmissionInterestsBytesSent:count 0
attr recordingmode count
attr source appRetransmissionInterestsBytesSent
scalar SimpleNetwork.contentServer2 appRetransmissionInterestsBytesSent:mean -nan
attr recordingmode mean
attr source appRetransmissionInterestsBytesSent
scalar SimpleNetwork.contentServer2 appRetransmissionInterestsBytesSent:sum 0
attr recordingmode sum
attr source appRetransmissionInterestsBytesSent
scalar SimpleNetwork.contentServer2 appTotalInterestsBytesSent:count 0
attr recordingmode count
attr source appTotalInterestsBytesSent
scalar SimpleNetwork.contentServer2 appTotalInterestsBytesSent:mean -nan
attr recordingmode mean
attr source appTotalInterestsBytesSent
scalar SimpleNetwork.contentServer2 appTotalInterestsBytesSent:sum 0
attr recordingmode sum
attr source appTotalInterestsBytesSent
scalar SimpleNetwork.contentServer2 appSegmentDownloadDuration:min -nan
attr recordingmode min
attr source appSegmentDownloadDuration
scalar SimpleNetwork.contentServer2 appSegmentDownloadDuration:max -nan
attr recordingmode max
attr source appSegmentDownloadDuration
scalar SimpleNetwork.contentServer2 appSegmentDownloadDuration:count 0
attr recordingmode count
attr source appSegmentDownloadDuration
scalar SimpleNetwork.contentServer2 appSegmentDownloadDuration:mean -nan
attr recordingmode mean
attr source appSegmentDownloadDuration
scalar SimpleNetwork.contentServer2 appContentDownloadDuration:min -nan
attr recordingmode min
attr source appContentDownloadDuration
scalar SimpleNetwork.contentServer2 appContentDownloadDuration:max -nan
attr recordingmode max
attr source appContentDownloadDuration
scalar SimpleNetwork.contentServer2 appContentDownloadDuration:count 0
attr recordingmode count
attr source appContentDownloadDuration
scalar SimpleNetwork.contentServer2 appContentDownloadDuration:mean -nan
attr recordingmode mean
attr source appContentDownloadDuration
par SimpleNetwork.demiurge typename "\"inbaversim.Demiurge\""
par SimpleNetwork typename "\"inbaversim.simulations.SimpleNetwork\""
scalar SimpleNetwork fwdNetworkCacheMissRatio:min 0.33234600737472
attr recordingmode min
attr source fwdNetworkCacheMissRatio
scalar SimpleNetwork fwdNetworkCacheMissRatio:max 1
attr recordingmode max
attr source fwdNetworkCacheMissRatio
scalar SimpleNetwork fwdNetworkCacheMissRatio:count 49629
attr recordingmode count
attr source fwdNetworkCacheMissRatio
scalar SimpleNetwork fwdNetworkCacheMissRatio:last 0.33234600737472
attr recordingmode last
attr source fwdNetworkCacheMissRatio
scalar SimpleNetwork fwdNetworkCacheHitRatio:min 0
attr recordingmode min
attr source fwdNetworkCacheHitRatio
scalar SimpleNetwork fwdNetworkCacheHitRatio:max 0.66765399262528
attr recordingmode max
attr source fwdNetworkCacheHitRatio
scalar SimpleNetwork fwdNetworkCacheHitRatio:count 49629
attr recordingmode count
attr source fwdNetworkCacheHitRatio
scalar SimpleNetwork fwdNetworkCacheHitRatio:last 0.66765399262528
attr recordingmode last
attr source fwdNetworkCacheHitRatio
scalar SimpleNetwork appNetworkInterestRetransmissionCount:last 2872
attr recordingmode last
attr source appNetworkInterestRetransmissionCount

