version 3
run Basic-Test-0-20250612-15:25:29-8644
attr configname Basic-Test
attr datetime 20250612-15:25:29
attr datetimef 20250612-152529
attr experiment Basic-Test
attr inifile omnetpp-basic-network.ini
attr iterationvars ""
attr iterationvarsd ""
attr iterationvarsf ""
attr measurement ""
attr network BasicNetwork
attr processid 8644
attr repetition 0
attr replication #0
attr resultdir results/
attr runnumber 0
attr seedset 0
config image-path ../../inet4.5/images
config **.contentServer.numApps 1
config **.contentServer.app[0].typename ContentHostApp
config **.contentServer.app[0].hostedPrefixNames "\"ccnx://spacetime.com/\""
config **.contentServer.app[0].dataNamePrefix "\"info\""
config **.contentServer.app[0].segmentSize 1000byte
config **.contentServer.app[0].numSegmentsPerFile 5
config **.contentServer.app[0].cacheTime 2h
config **.wirelessNode[*].numApps 1
config **.wirelessNode[*].app[0].typename ContentDownloadApp
config **.wirelessNode[*].app[0].interContentDownloadInterval 100s
config **.wirelessNode[*].app[0].requestedPrefixNames "\"ccnx://spacetime.com/\""
config **.wirelessNode[*].app[0].dataNamePrefix "\"info\""
config **.wirelessNode[*].app[0].interestRetransmitTimeout 10s
config **.wirelessNode[*].btWirelessRange 300m
config **.wirelessNode[*].wlanWirelessRange 300m
config **.wirelessAccessRouter.wlanWirelessRange 300m
config **.constraintAreaMinX 0m
config **.constraintAreaMinY 0m
config **.constraintAreaMinZ 0m
config **.constraintAreaMaxX 300m
config **.constraintAreaMaxY 300m
config **.constraintAreaMaxZ 0m
config **.updateInterval 1s
config **.initFromDisplayString true
config network BasicNetwork
config sim-time-limit 24h
config repeat 1
config num-rngs 8
config seed-0-mt 1000
config seed-1-mt 2000
config seed-2-mt 3000
config seed-3-mt 4000
config seed-4-mt 5000
config seed-5-mt 6000
config seed-6-mt 7000
config seed-7-mt 8000
config **.deus.rng-0 1
config **.numen.rng-0 2
config **.app[*].rng-0 3
config **.fwd.rng-0 4
config **.wired[*].rng-0 5
config **.wireless[*].rng-0 6
config **.mobility.rng-0 7
config result-dir results/
config output-vector-file results//omnetpp-basic-network.ini-Basic-Test-0.vec
config output-scalar-file results//omnetpp-basic-network.ini-Basic-Test-0.sca
config **.vector-recording true
config **.scalar-recording true
config **.statistic-recording true
config record-eventlog false
config eventlog-file results//omnetpp-basic-network.ini-Basic-Test-0.elog

par BasicNetwork.wirelessAccessRouter.wiredInOut$o[0].channel typename "\"ned.DatarateChannel\""
par BasicNetwork.wirelessAccessRouter.wiredInOut$o[0].channel disabled false
attr mutable ""
par BasicNetwork.wirelessAccessRouter.wiredInOut$o[0].channel delay 0s
attr mutable ""
attr unit s
par BasicNetwork.wirelessAccessRouter.wiredInOut$o[0].channel datarate 1e+06bps
attr mutable ""
attr unit bps
par BasicNetwork.wirelessAccessRouter.wiredInOut$o[0].channel ber 0
attr mutable ""
par BasicNetwork.wirelessAccessRouter.wiredInOut$o[0].channel per 0
attr mutable ""
par BasicNetwork.contentServer.wiredInOut$o[0].channel typename "\"ned.DatarateChannel\""
par BasicNetwork.contentServer.wiredInOut$o[0].channel disabled false
attr mutable ""
par BasicNetwork.contentServer.wiredInOut$o[0].channel delay 0s
attr mutable ""
attr unit s
par BasicNetwork.contentServer.wiredInOut$o[0].channel datarate 1e+06bps
attr mutable ""
attr unit bps
par BasicNetwork.contentServer.wiredInOut$o[0].channel ber 0
attr mutable ""
par BasicNetwork.contentServer.wiredInOut$o[0].channel per 0
attr mutable ""
par BasicNetwork.wirelessAccessRouter.numen typename "\"inbaversim.Numen\""
par BasicNetwork.wirelessAccessRouter.fwd typename "\"inbaversim.RFC8569Forwarder\""
par BasicNetwork.wirelessAccessRouter.fwd maximumContentStoreSize 0byte
attr unit byte
par BasicNetwork.wirelessAccessRouter.wired[0] typename "\"inbaversim.WiredTransport\""
par BasicNetwork.wirelessAccessRouter.wired[0] wiredTechnology "\"Ethernet\""
par BasicNetwork.wirelessAccessRouter.wired[0] dataRate 1e+06bps
attr unit bps
par BasicNetwork.wirelessAccessRouter.wired[0] packetErrorRate 0pct
attr unit pct
par BasicNetwork.wirelessAccessRouter.wired[0] headerSize 32byte
attr unit byte
par BasicNetwork.wirelessAccessRouter.wireless[0] typename "\"inbaversim.WirelessTransport\""
par BasicNetwork.wirelessAccessRouter.wireless[0] wirelessTechnology "\"WLAN\""
par BasicNetwork.wirelessAccessRouter.wireless[0] operationMode "\"ap\""
par BasicNetwork.wirelessAccessRouter.wireless[0] connectString "\"ccn\""
par BasicNetwork.wirelessAccessRouter.wireless[0] wirelessRange 300meter
attr unit meter
par BasicNetwork.wirelessAccessRouter.wireless[0] dataRate 1e+06bps
attr unit bps
par BasicNetwork.wirelessAccessRouter.wireless[0] packetErrorRate 0pct
attr unit pct
par BasicNetwork.wirelessAccessRouter.wireless[0] scanInterval 1s
attr unit s
par BasicNetwork.wirelessAccessRouter.wireless[0] headerSize 32byte
attr unit byte
par BasicNetwork.wirelessAccessRouter.wireless[0] wirelessRangeRadiusShow true
par BasicNetwork.wirelessAccessRouter.wireless[0] wirelessRangeRadiusColor "\"black\""
par BasicNetwork.wirelessAccessRouter.mob typename "\"inet.mobility.static.StationaryMobility\""
par BasicNetwork.wirelessAccessRouter.mob subjectModule "\"^\""
par BasicNetwork.wirelessAccessRouter.mob coordinateSystemModule "\"\""
par BasicNetwork.wirelessAccessRouter.mob displayStringTextFormat "\"p: %p\\nv: %v\""
attr mutable ""
par BasicNetwork.wirelessAccessRouter.mob updateDisplayString true
par BasicNetwork.wirelessAccessRouter.mob constraintAreaMinX 0m
attr unit m
par BasicNetwork.wirelessAccessRouter.mob constraintAreaMinY 0m
attr unit m
par BasicNetwork.wirelessAccessRouter.mob constraintAreaMinZ 0m
attr unit m
par BasicNetwork.wirelessAccessRouter.mob constraintAreaMaxX 300m
attr unit m
par BasicNetwork.wirelessAccessRouter.mob constraintAreaMaxY 300m
attr unit m
par BasicNetwork.wirelessAccessRouter.mob constraintAreaMaxZ 0m
attr unit m
par BasicNetwork.wirelessAccessRouter.mob initialX 196.077m
attr unit m
par BasicNetwork.wirelessAccessRouter.mob initialY 61.6565m
attr unit m
par BasicNetwork.wirelessAccessRouter.mob initialZ 0m
attr unit m
par BasicNetwork.wirelessAccessRouter.mob initialLatitude "nan deg"
attr unit deg
par BasicNetwork.wirelessAccessRouter.mob initialLongitude "nan deg"
attr unit deg
par BasicNetwork.wirelessAccessRouter.mob initialAltitude 0m
attr unit m
par BasicNetwork.wirelessAccessRouter.mob initialHeading 0deg
attr unit deg
par BasicNetwork.wirelessAccessRouter.mob initialElevation 0deg
attr unit deg
par BasicNetwork.wirelessAccessRouter.mob initialBank 0deg
attr unit deg
par BasicNetwork.wirelessAccessRouter.mob initFromDisplayString true
par BasicNetwork.wirelessAccessRouter.mob updateFromDisplayString true
par BasicNetwork.wirelessAccessRouter typename "\"inbaversim.WirelessAccessRouter\""
par BasicNetwork.wirelessAccessRouter numApps 0
par BasicNetwork.wirelessAccessRouter numWiredTransports 1
par BasicNetwork.wirelessAccessRouter numWirelessTransports 1
par BasicNetwork.wirelessAccessRouter wirelessAccessRouterNumWiredTransports 1
par BasicNetwork.wirelessAccessRouter wirelessAccessRouterNumWirelessTransports 1
par BasicNetwork.wirelessAccessRouter forwarder "\"RFC8569Forwarder\""
par BasicNetwork.wirelessAccessRouter wlanConnectString "\"ccn\""
par BasicNetwork.wirelessAccessRouter wlanWirelessRange 300meter
attr unit meter
par BasicNetwork.wirelessAccessRouter wlanDataRate 1e+06bps
attr unit bps
par BasicNetwork.wirelessAccessRouter wlanPacketErrorRate 0pct
attr unit pct
par BasicNetwork.wirelessAccessRouter ethDataRate 1e+06bps
attr unit bps
par BasicNetwork.wirelessAccessRouter ethPacketErrorRate 0pct
attr unit pct
par BasicNetwork.wirelessAccessRouter mobility "\"StationaryMobility\""
scalar BasicNetwork.wirelessAccessRouter transportTotalWirelessBytesSent:count 7895
attr recordingmode count
attr source transportTotalWirelessBytesSent
scalar BasicNetwork.wirelessAccessRouter transportTotalWirelessBytesSent:mean 1048
attr recordingmode mean
attr source transportTotalWirelessBytesSent
scalar BasicNetwork.wirelessAccessRouter transportTotalWirelessBytesSent:sum 8273960
attr recordingmode sum
attr source transportTotalWirelessBytesSent
scalar BasicNetwork.wirelessAccessRouter transportTotalWirelessBytesReceived:count 7895
attr recordingmode count
attr source transportTotalWirelessBytesReceived
scalar BasicNetwork.wirelessAccessRouter transportTotalWirelessBytesReceived:mean 48
attr recordingmode mean
attr source transportTotalWirelessBytesReceived
scalar BasicNetwork.wirelessAccessRouter transportTotalWirelessBytesReceived:sum 378960
attr recordingmode sum
attr source transportTotalWirelessBytesReceived
scalar BasicNetwork.wirelessAccessRouter transportTotalWiredBytesSent:count 7895
attr recordingmode count
attr source transportTotalWiredBytesSent
scalar BasicNetwork.wirelessAccessRouter transportTotalWiredBytesSent:mean 48
attr recordingmode mean
attr source transportTotalWiredBytesSent
scalar BasicNetwork.wirelessAccessRouter transportTotalWiredBytesSent:sum 378960
attr recordingmode sum
attr source transportTotalWiredBytesSent
scalar BasicNetwork.wirelessAccessRouter transportTotalWiredBytesReceived:count 7895
attr recordingmode count
attr source transportTotalWiredBytesReceived
scalar BasicNetwork.wirelessAccessRouter transportTotalWiredBytesReceived:mean 1048
attr recordingmode mean
attr source transportTotalWiredBytesReceived
scalar BasicNetwork.wirelessAccessRouter transportTotalWiredBytesReceived:sum 8273960
attr recordingmode sum
attr source transportTotalWiredBytesReceived
scalar BasicNetwork.wirelessAccessRouter fwdCacheMissRatio:min 1
attr recordingmode min
attr source fwdCacheMissRatio
scalar BasicNetwork.wirelessAccessRouter fwdCacheMissRatio:max 1
attr recordingmode max
attr source fwdCacheMissRatio
scalar BasicNetwork.wirelessAccessRouter fwdCacheMissRatio:count 7895
attr recordingmode count
attr source fwdCacheMissRatio
scalar BasicNetwork.wirelessAccessRouter fwdCacheMissRatio:last 1
attr recordingmode last
attr source fwdCacheMissRatio
scalar BasicNetwork.wirelessAccessRouter fwdCacheHitRatio:min 0
attr recordingmode min
attr source fwdCacheHitRatio
scalar BasicNetwork.wirelessAccessRouter fwdCacheHitRatio:max 0
attr recordingmode max
attr source fwdCacheHitRatio
scalar BasicNetwork.wirelessAccessRouter fwdCacheHitRatio:count 7895
attr recordingmode count
attr source fwdCacheHitRatio
scalar BasicNetwork.wirelessAccessRouter fwdCacheHitRatio:last 0
attr recordingmode last
attr source fwdCacheHitRatio
scalar BasicNetwork.wirelessAccessRouter fwdPITEntryCount:min 0
attr recordingmode min
attr source fwdPITEntryCount
scalar BasicNetwork.wirelessAccessRouter fwdPITEntryCount:max 2
attr recordingmode max
attr source fwdPITEntryCount
scalar BasicNetwork.wirelessAccessRouter fwdPITEntryCount:count 15790
attr recordingmode count
attr source fwdPITEntryCount
scalar BasicNetwork.wirelessAccessRouter fwdPITEntryCount:mean 0.602596580114
attr recordingmode mean
attr source fwdPITEntryCount
scalar BasicNetwork.wirelessAccessRouter fwdPITEntryCount:timeavg 0.00080222183439244
attr recordingmode timeavg
attr source fwdPITEntryCount
scalar BasicNetwork.wirelessAccessRouter fwdPITEntryCount:last 0
attr recordingmode last
attr source fwdPITEntryCount
scalar BasicNetwork.wirelessAccessRouter fwdFIBEntryCount:min 1
attr recordingmode min
attr source fwdFIBEntryCount
scalar BasicNetwork.wirelessAccessRouter fwdFIBEntryCount:max 1
attr recordingmode max
attr source fwdFIBEntryCount
scalar BasicNetwork.wirelessAccessRouter fwdFIBEntryCount:count 2
attr recordingmode count
attr source fwdFIBEntryCount
scalar BasicNetwork.wirelessAccessRouter fwdFIBEntryCount:mean 1
attr recordingmode mean
attr source fwdFIBEntryCount
scalar BasicNetwork.wirelessAccessRouter fwdFIBEntryCount:timeavg 1
attr recordingmode timeavg
attr source fwdFIBEntryCount
scalar BasicNetwork.wirelessAccessRouter fwdFIBEntryCount:last 1
attr recordingmode last
attr source fwdFIBEntryCount
scalar BasicNetwork.wirelessAccessRouter fwdCacheRemovalsBytes:count 0
attr recordingmode count
attr source fwdCacheRemovalsBytes
scalar BasicNetwork.wirelessAccessRouter fwdCacheRemovalsBytes:mean -nan
attr recordingmode mean
attr source fwdCacheRemovalsBytes
scalar BasicNetwork.wirelessAccessRouter fwdCacheRemovalsBytes:sum 0
attr recordingmode sum
attr source fwdCacheRemovalsBytes
scalar BasicNetwork.wirelessAccessRouter fwdCacheAdditionsBytes:count 7895
attr recordingmode count
attr source fwdCacheAdditionsBytes
scalar BasicNetwork.wirelessAccessRouter fwdCacheAdditionsBytes:mean 1000
attr recordingmode mean
attr source fwdCacheAdditionsBytes
scalar BasicNetwork.wirelessAccessRouter fwdCacheAdditionsBytes:sum 7895000
attr recordingmode sum
attr source fwdCacheAdditionsBytes
scalar BasicNetwork.wirelessAccessRouter fwdCacheSizeBytes:min 1000
attr recordingmode min
attr source fwdCacheSizeBytes
scalar BasicNetwork.wirelessAccessRouter fwdCacheSizeBytes:max 7895000
attr recordingmode max
attr source fwdCacheSizeBytes
scalar BasicNetwork.wirelessAccessRouter fwdCacheSizeBytes:count 7895
attr recordingmode count
attr source fwdCacheSizeBytes
scalar BasicNetwork.wirelessAccessRouter fwdCacheSizeBytes:mean 3948000
attr recordingmode mean
attr source fwdCacheSizeBytes
scalar BasicNetwork.wirelessAccessRouter fwdCacheSizeBytes:timeavg 4087696.8832005
attr recordingmode timeavg
attr source fwdCacheSizeBytes
scalar BasicNetwork.wirelessAccessRouter fwdCacheSizeBytes:last 7895000
attr recordingmode last
attr source fwdCacheSizeBytes
scalar BasicNetwork.wirelessAccessRouter fwdTotalContentObjsBytesSent:count 7895
attr recordingmode count
attr source fwdTotalContentObjsBytesSent
scalar BasicNetwork.wirelessAccessRouter fwdTotalContentObjsBytesSent:mean 1016
attr recordingmode mean
attr source fwdTotalContentObjsBytesSent
scalar BasicNetwork.wirelessAccessRouter fwdTotalContentObjsBytesSent:sum 8021320
attr recordingmode sum
attr source fwdTotalContentObjsBytesSent
scalar BasicNetwork.wirelessAccessRouter fwdTotalInterestRtnsBytesSent:count 0
attr recordingmode count
attr source fwdTotalInterestRtnsBytesSent
scalar BasicNetwork.wirelessAccessRouter fwdTotalInterestRtnsBytesSent:mean -nan
attr recordingmode mean
attr source fwdTotalInterestRtnsBytesSent
scalar BasicNetwork.wirelessAccessRouter fwdTotalInterestRtnsBytesSent:sum 0
attr recordingmode sum
attr source fwdTotalInterestRtnsBytesSent
scalar BasicNetwork.wirelessAccessRouter fwdTotalInterestsBytesSent:count 7895
attr recordingmode count
attr source fwdTotalInterestsBytesSent
scalar BasicNetwork.wirelessAccessRouter fwdTotalInterestsBytesSent:mean 16
attr recordingmode mean
attr source fwdTotalInterestsBytesSent
scalar BasicNetwork.wirelessAccessRouter fwdTotalInterestsBytesSent:sum 126320
attr recordingmode sum
attr source fwdTotalInterestsBytesSent
scalar BasicNetwork.wirelessAccessRouter fwdTotalContentObjsBytesReceived:count 7895
attr recordingmode count
attr source fwdTotalContentObjsBytesReceived
scalar BasicNetwork.wirelessAccessRouter fwdTotalContentObjsBytesReceived:mean 1016
attr recordingmode mean
attr source fwdTotalContentObjsBytesReceived
scalar BasicNetwork.wirelessAccessRouter fwdTotalContentObjsBytesReceived:sum 8021320
attr recordingmode sum
attr source fwdTotalContentObjsBytesReceived
scalar BasicNetwork.wirelessAccessRouter fwdTotalInterestRtnsBytesReceived:count 0
attr recordingmode count
attr source fwdTotalInterestRtnsBytesReceived
scalar BasicNetwork.wirelessAccessRouter fwdTotalInterestRtnsBytesReceived:mean -nan
attr recordingmode mean
attr source fwdTotalInterestRtnsBytesReceived
scalar BasicNetwork.wirelessAccessRouter fwdTotalInterestRtnsBytesReceived:sum 0
attr recordingmode sum
attr source fwdTotalInterestRtnsBytesReceived
scalar BasicNetwork.wirelessAccessRouter fwdTotalInterestsBytesReceived:count 7895
attr recordingmode count
attr source fwdTotalInterestsBytesReceived
scalar BasicNetwork.wirelessAccessRouter fwdTotalInterestsBytesReceived:mean 16
attr recordingmode mean
attr source fwdTotalInterestsBytesReceived
scalar BasicNetwork.wirelessAccessRouter fwdTotalInterestsBytesReceived:sum 126320
attr recordingmode sum
attr source fwdTotalInterestsBytesReceived
scalar BasicNetwork.wirelessAccessRouter appTotalDataBytesSent:count 0
attr recordingmode count
attr source appTotalDataBytesSent
scalar BasicNetwork.wirelessAccessRouter appTotalDataBytesSent:mean -nan
attr recordingmode mean
attr source appTotalDataBytesSent
scalar BasicNetwork.wirelessAccessRouter appTotalDataBytesSent:sum 0
attr recordingmode sum
attr source appTotalDataBytesSent
scalar BasicNetwork.wirelessAccessRouter appTotalContentObjsBytesSent:count 0
attr recordingmode count
attr source appTotalContentObjsBytesSent
scalar BasicNetwork.wirelessAccessRouter appTotalContentObjsBytesSent:mean -nan
attr recordingmode mean
attr source appTotalContentObjsBytesSent
scalar BasicNetwork.wirelessAccessRouter appTotalContentObjsBytesSent:sum 0
attr recordingmode sum
attr source appTotalContentObjsBytesSent
scalar BasicNetwork.wirelessAccessRouter appTotalInterestsBytesReceived:count 0
attr recordingmode count
attr source appTotalInterestsBytesReceived
scalar BasicNetwork.wirelessAccessRouter appTotalInterestsBytesReceived:mean -nan
attr recordingmode mean
attr source appTotalInterestsBytesReceived
scalar BasicNetwork.wirelessAccessRouter appTotalInterestsBytesReceived:sum 0
attr recordingmode sum
attr source appTotalInterestsBytesReceived
scalar BasicNetwork.wirelessAccessRouter appTotalDataBytesReceived:count 0
attr recordingmode count
attr source appTotalDataBytesReceived
scalar BasicNetwork.wirelessAccessRouter appTotalDataBytesReceived:mean -nan
attr recordingmode mean
attr source appTotalDataBytesReceived
scalar BasicNetwork.wirelessAccessRouter appTotalDataBytesReceived:sum 0
attr recordingmode sum
attr source appTotalDataBytesReceived
scalar BasicNetwork.wirelessAccessRouter appTotalContentObjsBytesReceived:count 0
attr recordingmode count
attr source appTotalContentObjsBytesReceived
scalar BasicNetwork.wirelessAccessRouter appTotalContentObjsBytesReceived:mean -nan
attr recordingmode mean
attr source appTotalContentObjsBytesReceived
scalar BasicNetwork.wirelessAccessRouter appTotalContentObjsBytesReceived:sum 0
attr recordingmode sum
attr source appTotalContentObjsBytesReceived
scalar BasicNetwork.wirelessAccessRouter appRetransmissionInterestsBytesSent:count 0
attr recordingmode count
attr source appRetransmissionInterestsBytesSent
scalar BasicNetwork.wirelessAccessRouter appRetransmissionInterestsBytesSent:mean -nan
attr recordingmode mean
attr source appRetransmissionInterestsBytesSent
scalar BasicNetwork.wirelessAccessRouter appRetransmissionInterestsBytesSent:sum 0
attr recordingmode sum
attr source appRetransmissionInterestsBytesSent
scalar BasicNetwork.wirelessAccessRouter appTotalInterestsBytesSent:count 0
attr recordingmode count
attr source appTotalInterestsBytesSent
scalar BasicNetwork.wirelessAccessRouter appTotalInterestsBytesSent:mean -nan
attr recordingmode mean
attr source appTotalInterestsBytesSent
scalar BasicNetwork.wirelessAccessRouter appTotalInterestsBytesSent:sum 0
attr recordingmode sum
attr source appTotalInterestsBytesSent
scalar BasicNetwork.wirelessAccessRouter appSegmentDownloadDuration:min -nan
attr recordingmode min
attr source appSegmentDownloadDuration
scalar BasicNetwork.wirelessAccessRouter appSegmentDownloadDuration:max -nan
attr recordingmode max
attr source appSegmentDownloadDuration
scalar BasicNetwork.wirelessAccessRouter appSegmentDownloadDuration:count 0
attr recordingmode count
attr source appSegmentDownloadDuration
scalar BasicNetwork.wirelessAccessRouter appSegmentDownloadDuration:mean -nan
attr recordingmode mean
attr source appSegmentDownloadDuration
scalar BasicNetwork.wirelessAccessRouter appContentDownloadDuration:min -nan
attr recordingmode min
attr source appContentDownloadDuration
scalar BasicNetwork.wirelessAccessRouter appContentDownloadDuration:max -nan
attr recordingmode max
attr source appContentDownloadDuration
scalar BasicNetwork.wirelessAccessRouter appContentDownloadDuration:count 0
attr recordingmode count
attr source appContentDownloadDuration
scalar BasicNetwork.wirelessAccessRouter appContentDownloadDuration:mean -nan
attr recordingmode mean
attr source appContentDownloadDuration
par BasicNetwork.wirelessNode[0].numen typename "\"inbaversim.Numen\""
par BasicNetwork.wirelessNode[0].app[0] typename "\"inbaversim.ContentDownloadApp\""
par BasicNetwork.wirelessNode[0].app[0] interContentDownloadInterval 100s
attr unit s
par BasicNetwork.wirelessNode[0].app[0] requestedPrefixNames "\"ccnx://spacetime.com/\""
par BasicNetwork.wirelessNode[0].app[0] dataNamePrefix "\"info\""
par BasicNetwork.wirelessNode[0].app[0] nextFileSuffix "intuniform(0, 9999)"
par BasicNetwork.wirelessNode[0].app[0] maxHopsAllowed 16
par BasicNetwork.wirelessNode[0].app[0] interestRetransmitTimeout 10s
attr unit s
par BasicNetwork.wirelessNode[0].fwd typename "\"inbaversim.RFC8569Forwarder\""
par BasicNetwork.wirelessNode[0].fwd maximumContentStoreSize 0byte
attr unit byte
par BasicNetwork.wirelessNode[0].wireless[0] typename "\"inbaversim.WirelessTransport\""
par BasicNetwork.wirelessNode[0].wireless[0] wirelessTechnology "\"WLAN\""
par BasicNetwork.wirelessNode[0].wireless[0] operationMode "\"client\""
par BasicNetwork.wirelessNode[0].wireless[0] connectString "\"ccn\""
par BasicNetwork.wirelessNode[0].wireless[0] wirelessRange 300meter
attr unit meter
par BasicNetwork.wirelessNode[0].wireless[0] dataRate 1e+06bps
attr unit bps
par BasicNetwork.wirelessNode[0].wireless[0] packetErrorRate 0pct
attr unit pct
par BasicNetwork.wirelessNode[0].wireless[0] scanInterval 1s
attr unit s
par BasicNetwork.wirelessNode[0].wireless[0] headerSize 32byte
attr unit byte
par BasicNetwork.wirelessNode[0].wireless[0] wirelessRangeRadiusShow false
par BasicNetwork.wirelessNode[0].wireless[0] wirelessRangeRadiusColor "\"black\""
par BasicNetwork.wirelessNode[0].wireless[1] typename "\"inbaversim.WirelessTransport\""
par BasicNetwork.wirelessNode[0].wireless[1] wirelessTechnology "\"Bluetooth\""
par BasicNetwork.wirelessNode[0].wireless[1] operationMode "\"direct\""
par BasicNetwork.wirelessNode[0].wireless[1] connectString "\"ccn\""
par BasicNetwork.wirelessNode[0].wireless[1] wirelessRange 300meter
attr unit meter
par BasicNetwork.wirelessNode[0].wireless[1] dataRate 1e+06bps
attr unit bps
par BasicNetwork.wirelessNode[0].wireless[1] packetErrorRate 0pct
attr unit pct
par BasicNetwork.wirelessNode[0].wireless[1] scanInterval 1s
attr unit s
par BasicNetwork.wirelessNode[0].wireless[1] headerSize 32byte
attr unit byte
par BasicNetwork.wirelessNode[0].wireless[1] wirelessRangeRadiusShow false
par BasicNetwork.wirelessNode[0].wireless[1] wirelessRangeRadiusColor "\"black\""
par BasicNetwork.wirelessNode[0].mob typename "\"inet.mobility.static.StationaryMobility\""
par BasicNetwork.wirelessNode[0].mob subjectModule "\"^\""
par BasicNetwork.wirelessNode[0].mob coordinateSystemModule "\"\""
par BasicNetwork.wirelessNode[0].mob displayStringTextFormat "\"p: %p\\nv: %v\""
attr mutable ""
par BasicNetwork.wirelessNode[0].mob updateDisplayString true
par BasicNetwork.wirelessNode[0].mob constraintAreaMinX 0m
attr unit m
par BasicNetwork.wirelessNode[0].mob constraintAreaMinY 0m
attr unit m
par BasicNetwork.wirelessNode[0].mob constraintAreaMinZ 0m
attr unit m
par BasicNetwork.wirelessNode[0].mob constraintAreaMaxX 300m
attr unit m
par BasicNetwork.wirelessNode[0].mob constraintAreaMaxY 300m
attr unit m
par BasicNetwork.wirelessNode[0].mob constraintAreaMaxZ 0m
attr unit m
par BasicNetwork.wirelessNode[0].mob initialX 183.115m
attr unit m
par BasicNetwork.wirelessNode[0].mob initialY 285.085m
attr unit m
par BasicNetwork.wirelessNode[0].mob initialZ 0m
attr unit m
par BasicNetwork.wirelessNode[0].mob initialLatitude "nan deg"
attr unit deg
par BasicNetwork.wirelessNode[0].mob initialLongitude "nan deg"
attr unit deg
par BasicNetwork.wirelessNode[0].mob initialAltitude 0m
attr unit m
par BasicNetwork.wirelessNode[0].mob initialHeading 0deg
attr unit deg
par BasicNetwork.wirelessNode[0].mob initialElevation 0deg
attr unit deg
par BasicNetwork.wirelessNode[0].mob initialBank 0deg
attr unit deg
par BasicNetwork.wirelessNode[0].mob initFromDisplayString true
par BasicNetwork.wirelessNode[0].mob updateFromDisplayString true
par BasicNetwork.wirelessNode[0] typename "\"inbaversim.WirelessNode\""
par BasicNetwork.wirelessNode[0] numApps 1
par BasicNetwork.wirelessNode[0] numWiredTransports 0
par BasicNetwork.wirelessNode[0] numWirelessTransports 2
par BasicNetwork.wirelessNode[0] wirelessNodeNumWiredTransports 0
par BasicNetwork.wirelessNode[0] wirelessNodeNumWirelessTransports 2
par BasicNetwork.wirelessNode[0] forwarder "\"RFC8569Forwarder\""
par BasicNetwork.wirelessNode[0] wlanConnectString "\"ccn\""
par BasicNetwork.wirelessNode[0] wlanWirelessRange 300meter
attr unit meter
par BasicNetwork.wirelessNode[0] wlanDataRate 1e+06bps
attr unit bps
par BasicNetwork.wirelessNode[0] wlanPacketErrorRate 0pct
attr unit pct
par BasicNetwork.wirelessNode[0] btConnectString "\"ccn\""
par BasicNetwork.wirelessNode[0] btWirelessRange 300meter
attr unit meter
par BasicNetwork.wirelessNode[0] btDataRate 1e+06bps
attr unit bps
par BasicNetwork.wirelessNode[0] btPacketErrorRate 0pct
attr unit pct
par BasicNetwork.wirelessNode[0] mobility "\"StationaryMobility\""
scalar BasicNetwork.wirelessNode[0] transportTotalWirelessBytesSent:count 3940
attr recordingmode count
attr source transportTotalWirelessBytesSent
scalar BasicNetwork.wirelessNode[0] transportTotalWirelessBytesSent:mean 48
attr recordingmode mean
attr source transportTotalWirelessBytesSent
scalar BasicNetwork.wirelessNode[0] transportTotalWirelessBytesSent:sum 189120
attr recordingmode sum
attr source transportTotalWirelessBytesSent
scalar BasicNetwork.wirelessNode[0] transportTotalWirelessBytesReceived:count 7895
attr recordingmode count
attr source transportTotalWirelessBytesReceived
scalar BasicNetwork.wirelessNode[0] transportTotalWirelessBytesReceived:mean 1048
attr recordingmode mean
attr source transportTotalWirelessBytesReceived
scalar BasicNetwork.wirelessNode[0] transportTotalWirelessBytesReceived:sum 8273960
attr recordingmode sum
attr source transportTotalWirelessBytesReceived
scalar BasicNetwork.wirelessNode[0] transportTotalWiredBytesSent:count 0
attr recordingmode count
attr source transportTotalWiredBytesSent
scalar BasicNetwork.wirelessNode[0] transportTotalWiredBytesSent:mean -nan
attr recordingmode mean
attr source transportTotalWiredBytesSent
scalar BasicNetwork.wirelessNode[0] transportTotalWiredBytesSent:sum 0
attr recordingmode sum
attr source transportTotalWiredBytesSent
scalar BasicNetwork.wirelessNode[0] transportTotalWiredBytesReceived:count 0
attr recordingmode count
attr source transportTotalWiredBytesReceived
scalar BasicNetwork.wirelessNode[0] transportTotalWiredBytesReceived:mean -nan
attr recordingmode mean
attr source transportTotalWiredBytesReceived
scalar BasicNetwork.wirelessNode[0] transportTotalWiredBytesReceived:sum 0
attr recordingmode sum
attr source transportTotalWiredBytesReceived
scalar BasicNetwork.wirelessNode[0] fwdCacheMissRatio:min 0.91197183098592
attr recordingmode min
attr source fwdCacheMissRatio
scalar BasicNetwork.wirelessNode[0] fwdCacheMissRatio:max 1
attr recordingmode max
attr source fwdCacheMissRatio
scalar BasicNetwork.wirelessNode[0] fwdCacheMissRatio:count 4315
attr recordingmode count
attr source fwdCacheMissRatio
scalar BasicNetwork.wirelessNode[0] fwdCacheMissRatio:last 0.91309385863268
attr recordingmode last
attr source fwdCacheMissRatio
scalar BasicNetwork.wirelessNode[0] fwdCacheHitRatio:min 0
attr recordingmode min
attr source fwdCacheHitRatio
scalar BasicNetwork.wirelessNode[0] fwdCacheHitRatio:max 0.088028169014085
attr recordingmode max
attr source fwdCacheHitRatio
scalar BasicNetwork.wirelessNode[0] fwdCacheHitRatio:count 4315
attr recordingmode count
attr source fwdCacheHitRatio
scalar BasicNetwork.wirelessNode[0] fwdCacheHitRatio:last 0.086906141367323
attr recordingmode last
attr source fwdCacheHitRatio
scalar BasicNetwork.wirelessNode[0] fwdPITEntryCount:min 0
attr recordingmode min
attr source fwdPITEntryCount
scalar BasicNetwork.wirelessNode[0] fwdPITEntryCount:max 1
attr recordingmode max
attr source fwdPITEntryCount
scalar BasicNetwork.wirelessNode[0] fwdPITEntryCount:count 7880
attr recordingmode count
attr source fwdPITEntryCount
scalar BasicNetwork.wirelessNode[0] fwdPITEntryCount:mean 0.5
attr recordingmode mean
attr source fwdPITEntryCount
scalar BasicNetwork.wirelessNode[0] fwdPITEntryCount:timeavg 0.00080060069524915
attr recordingmode timeavg
attr source fwdPITEntryCount
scalar BasicNetwork.wirelessNode[0] fwdPITEntryCount:last 0
attr recordingmode last
attr source fwdPITEntryCount
scalar BasicNetwork.wirelessNode[0] fwdFIBEntryCount:min 1
attr recordingmode min
attr source fwdFIBEntryCount
scalar BasicNetwork.wirelessNode[0] fwdFIBEntryCount:max 1
attr recordingmode max
attr source fwdFIBEntryCount
scalar BasicNetwork.wirelessNode[0] fwdFIBEntryCount:count 1
attr recordingmode count
attr source fwdFIBEntryCount
scalar BasicNetwork.wirelessNode[0] fwdFIBEntryCount:mean 1
attr recordingmode mean
attr source fwdFIBEntryCount
scalar BasicNetwork.wirelessNode[0] fwdFIBEntryCount:timeavg 1
attr recordingmode timeavg
attr source fwdFIBEntryCount
scalar BasicNetwork.wirelessNode[0] fwdFIBEntryCount:last 1
attr recordingmode last
attr source fwdFIBEntryCount
scalar BasicNetwork.wirelessNode[0] fwdCacheRemovalsBytes:count 0
attr recordingmode count
attr source fwdCacheRemovalsBytes
scalar BasicNetwork.wirelessNode[0] fwdCacheRemovalsBytes:mean -nan
attr recordingmode mean
attr source fwdCacheRemovalsBytes
scalar BasicNetwork.wirelessNode[0] fwdCacheRemovalsBytes:sum 0
attr recordingmode sum
attr source fwdCacheRemovalsBytes
scalar BasicNetwork.wirelessNode[0] fwdCacheAdditionsBytes:count 7895
attr recordingmode count
attr source fwdCacheAdditionsBytes
scalar BasicNetwork.wirelessNode[0] fwdCacheAdditionsBytes:mean 1000
attr recordingmode mean
attr source fwdCacheAdditionsBytes
scalar BasicNetwork.wirelessNode[0] fwdCacheAdditionsBytes:sum 7895000
attr recordingmode sum
attr source fwdCacheAdditionsBytes
scalar BasicNetwork.wirelessNode[0] fwdCacheSizeBytes:min 1000
attr recordingmode min
attr source fwdCacheSizeBytes
scalar BasicNetwork.wirelessNode[0] fwdCacheSizeBytes:max 7895000
attr recordingmode max
attr source fwdCacheSizeBytes
scalar BasicNetwork.wirelessNode[0] fwdCacheSizeBytes:count 7895
attr recordingmode count
attr source fwdCacheSizeBytes
scalar BasicNetwork.wirelessNode[0] fwdCacheSizeBytes:mean 3948000
attr recordingmode mean
attr source fwdCacheSizeBytes
scalar BasicNetwork.wirelessNode[0] fwdCacheSizeBytes:timeavg 4087696.5133229
attr recordingmode timeavg
attr source fwdCacheSizeBytes
scalar BasicNetwork.wirelessNode[0] fwdCacheSizeBytes:last 7895000
attr recordingmode last
attr source fwdCacheSizeBytes
scalar BasicNetwork.wirelessNode[0] fwdTotalContentObjsBytesSent:count 0
attr recordingmode count
attr source fwdTotalContentObjsBytesSent
scalar BasicNetwork.wirelessNode[0] fwdTotalContentObjsBytesSent:mean -nan
attr recordingmode mean
attr source fwdTotalContentObjsBytesSent
scalar BasicNetwork.wirelessNode[0] fwdTotalContentObjsBytesSent:sum 0
attr recordingmode sum
attr source fwdTotalContentObjsBytesSent
scalar BasicNetwork.wirelessNode[0] fwdTotalInterestRtnsBytesSent:count 0
attr recordingmode count
attr source fwdTotalInterestRtnsBytesSent
scalar BasicNetwork.wirelessNode[0] fwdTotalInterestRtnsBytesSent:mean -nan
attr recordingmode mean
attr source fwdTotalInterestRtnsBytesSent
scalar BasicNetwork.wirelessNode[0] fwdTotalInterestRtnsBytesSent:sum 0
attr recordingmode sum
attr source fwdTotalInterestRtnsBytesSent
scalar BasicNetwork.wirelessNode[0] fwdTotalInterestsBytesSent:count 3940
attr recordingmode count
attr source fwdTotalInterestsBytesSent
scalar BasicNetwork.wirelessNode[0] fwdTotalInterestsBytesSent:mean 16
attr recordingmode mean
attr source fwdTotalInterestsBytesSent
scalar BasicNetwork.wirelessNode[0] fwdTotalInterestsBytesSent:sum 63040
attr recordingmode sum
attr source fwdTotalInterestsBytesSent
scalar BasicNetwork.wirelessNode[0] fwdTotalContentObjsBytesReceived:count 7895
attr recordingmode count
attr source fwdTotalContentObjsBytesReceived
scalar BasicNetwork.wirelessNode[0] fwdTotalContentObjsBytesReceived:mean 1016
attr recordingmode mean
attr source fwdTotalContentObjsBytesReceived
scalar BasicNetwork.wirelessNode[0] fwdTotalContentObjsBytesReceived:sum 8021320
attr recordingmode sum
attr source fwdTotalContentObjsBytesReceived
scalar BasicNetwork.wirelessNode[0] fwdTotalInterestRtnsBytesReceived:count 0
attr recordingmode count
attr source fwdTotalInterestRtnsBytesReceived
scalar BasicNetwork.wirelessNode[0] fwdTotalInterestRtnsBytesReceived:mean -nan
attr recordingmode mean
attr source fwdTotalInterestRtnsBytesReceived
scalar BasicNetwork.wirelessNode[0] fwdTotalInterestRtnsBytesReceived:sum 0
attr recordingmode sum
attr source fwdTotalInterestRtnsBytesReceived
scalar BasicNetwork.wirelessNode[0] fwdTotalInterestsBytesReceived:count 0
attr recordingmode count
attr source fwdTotalInterestsBytesReceived
scalar BasicNetwork.wirelessNode[0] fwdTotalInterestsBytesReceived:mean -nan
attr recordingmode mean
attr source fwdTotalInterestsBytesReceived
scalar BasicNetwork.wirelessNode[0] fwdTotalInterestsBytesReceived:sum 0
attr recordingmode sum
attr source fwdTotalInterestsBytesReceived
scalar BasicNetwork.wirelessNode[0] appTotalDataBytesSent:count 0
attr recordingmode count
attr source appTotalDataBytesSent
scalar BasicNetwork.wirelessNode[0] appTotalDataBytesSent:mean -nan
attr recordingmode mean
attr source appTotalDataBytesSent
scalar BasicNetwork.wirelessNode[0] appTotalDataBytesSent:sum 0
attr recordingmode sum
attr source appTotalDataBytesSent
scalar BasicNetwork.wirelessNode[0] appTotalContentObjsBytesSent:count 0
attr recordingmode count
attr source appTotalContentObjsBytesSent
scalar BasicNetwork.wirelessNode[0] appTotalContentObjsBytesSent:mean -nan
attr recordingmode mean
attr source appTotalContentObjsBytesSent
scalar BasicNetwork.wirelessNode[0] appTotalContentObjsBytesSent:sum 0
attr recordingmode sum
attr source appTotalContentObjsBytesSent
scalar BasicNetwork.wirelessNode[0] appTotalInterestsBytesReceived:count 0
attr recordingmode count
attr source appTotalInterestsBytesReceived
scalar BasicNetwork.wirelessNode[0] appTotalInterestsBytesReceived:mean -nan
attr recordingmode mean
attr source appTotalInterestsBytesReceived
scalar BasicNetwork.wirelessNode[0] appTotalInterestsBytesReceived:sum 0
attr recordingmode sum
attr source appTotalInterestsBytesReceived
scalar BasicNetwork.wirelessNode[0] appTotalDataBytesReceived:count 4315
attr recordingmode count
attr source appTotalDataBytesReceived
scalar BasicNetwork.wirelessNode[0] appTotalDataBytesReceived:mean 1000
attr recordingmode mean
attr source appTotalDataBytesReceived
scalar BasicNetwork.wirelessNode[0] appTotalDataBytesReceived:sum 4315000
attr recordingmode sum
attr source appTotalDataBytesReceived
scalar BasicNetwork.wirelessNode[0] appTotalContentObjsBytesReceived:count 4315
attr recordingmode count
attr source appTotalContentObjsBytesReceived
scalar BasicNetwork.wirelessNode[0] appTotalContentObjsBytesReceived:mean 1016
attr recordingmode mean
attr source appTotalContentObjsBytesReceived
scalar BasicNetwork.wirelessNode[0] appTotalContentObjsBytesReceived:sum 4384040
attr recordingmode sum
attr source appTotalContentObjsBytesReceived
scalar BasicNetwork.wirelessNode[0] appRetransmissionInterestsBytesSent:count 0
attr recordingmode count
attr source appRetransmissionInterestsBytesSent
scalar BasicNetwork.wirelessNode[0] appRetransmissionInterestsBytesSent:mean -nan
attr recordingmode mean
attr source appRetransmissionInterestsBytesSent
scalar BasicNetwork.wirelessNode[0] appRetransmissionInterestsBytesSent:sum 0
attr recordingmode sum
attr source appRetransmissionInterestsBytesSent
scalar BasicNetwork.wirelessNode[0] appTotalInterestsBytesSent:count 4315
attr recordingmode count
attr source appTotalInterestsBytesSent
scalar BasicNetwork.wirelessNode[0] appTotalInterestsBytesSent:mean 16
attr recordingmode mean
attr source appTotalInterestsBytesSent
scalar BasicNetwork.wirelessNode[0] appTotalInterestsBytesSent:sum 69040
attr recordingmode sum
attr source appTotalInterestsBytesSent
scalar BasicNetwork.wirelessNode[0] appSegmentDownloadDuration:min 0
attr recordingmode min
attr source appSegmentDownloadDuration
scalar BasicNetwork.wirelessNode[0] appSegmentDownloadDuration:max 0.017536
attr recordingmode max
attr source appSegmentDownloadDuration
scalar BasicNetwork.wirelessNode[0] appSegmentDownloadDuration:count 4315
attr recordingmode count
attr source appSegmentDownloadDuration
scalar BasicNetwork.wirelessNode[0] appSegmentDownloadDuration:mean 0.016012013904983
attr recordingmode mean
attr source appSegmentDownloadDuration
scalar BasicNetwork.wirelessNode[0] appContentDownloadDuration:min 0
attr recordingmode min
attr source appContentDownloadDuration
scalar BasicNetwork.wirelessNode[0] appContentDownloadDuration:max 0.08768
attr recordingmode max
attr source appContentDownloadDuration
scalar BasicNetwork.wirelessNode[0] appContentDownloadDuration:count 863
attr recordingmode count
attr source appContentDownloadDuration
scalar BasicNetwork.wirelessNode[0] appContentDownloadDuration:mean 0.080060069524913
attr recordingmode mean
attr source appContentDownloadDuration
par BasicNetwork.wirelessNode[1].numen typename "\"inbaversim.Numen\""
par BasicNetwork.wirelessNode[1].app[0] typename "\"inbaversim.ContentDownloadApp\""
par BasicNetwork.wirelessNode[1].app[0] interContentDownloadInterval 100s
attr unit s
par BasicNetwork.wirelessNode[1].app[0] requestedPrefixNames "\"ccnx://spacetime.com/\""
par BasicNetwork.wirelessNode[1].app[0] dataNamePrefix "\"info\""
par BasicNetwork.wirelessNode[1].app[0] nextFileSuffix "intuniform(0, 9999)"
par BasicNetwork.wirelessNode[1].app[0] maxHopsAllowed 16
par BasicNetwork.wirelessNode[1].app[0] interestRetransmitTimeout 10s
attr unit s
par BasicNetwork.wirelessNode[1].fwd typename "\"inbaversim.RFC8569Forwarder\""
par BasicNetwork.wirelessNode[1].fwd maximumContentStoreSize 0byte
attr unit byte
par BasicNetwork.wirelessNode[1].wireless[0] typename "\"inbaversim.WirelessTransport\""
par BasicNetwork.wirelessNode[1].wireless[0] wirelessTechnology "\"WLAN\""
par BasicNetwork.wirelessNode[1].wireless[0] operationMode "\"client\""
par BasicNetwork.wirelessNode[1].wireless[0] connectString "\"ccn\""
par BasicNetwork.wirelessNode[1].wireless[0] wirelessRange 300meter
attr unit meter
par BasicNetwork.wirelessNode[1].wireless[0] dataRate 1e+06bps
attr unit bps
par BasicNetwork.wirelessNode[1].wireless[0] packetErrorRate 0pct
attr unit pct
par BasicNetwork.wirelessNode[1].wireless[0] scanInterval 1s
attr unit s
par BasicNetwork.wirelessNode[1].wireless[0] headerSize 32byte
attr unit byte
par BasicNetwork.wirelessNode[1].wireless[0] wirelessRangeRadiusShow false
par BasicNetwork.wirelessNode[1].wireless[0] wirelessRangeRadiusColor "\"black\""
par BasicNetwork.wirelessNode[1].wireless[1] typename "\"inbaversim.WirelessTransport\""
par BasicNetwork.wirelessNode[1].wireless[1] wirelessTechnology "\"Bluetooth\""
par BasicNetwork.wirelessNode[1].wireless[1] operationMode "\"direct\""
par BasicNetwork.wirelessNode[1].wireless[1] connectString "\"ccn\""
par BasicNetwork.wirelessNode[1].wireless[1] wirelessRange 300meter
attr unit meter
par BasicNetwork.wirelessNode[1].wireless[1] dataRate 1e+06bps
attr unit bps
par BasicNetwork.wirelessNode[1].wireless[1] packetErrorRate 0pct
attr unit pct
par BasicNetwork.wirelessNode[1].wireless[1] scanInterval 1s
attr unit s
par BasicNetwork.wirelessNode[1].wireless[1] headerSize 32byte
attr unit byte
par BasicNetwork.wirelessNode[1].wireless[1] wirelessRangeRadiusShow false
par BasicNetwork.wirelessNode[1].wireless[1] wirelessRangeRadiusColor "\"black\""
par BasicNetwork.wirelessNode[1].mob typename "\"inet.mobility.static.StationaryMobility\""
par BasicNetwork.wirelessNode[1].mob subjectModule "\"^\""
par BasicNetwork.wirelessNode[1].mob coordinateSystemModule "\"\""
par BasicNetwork.wirelessNode[1].mob displayStringTextFormat "\"p: %p\\nv: %v\""
attr mutable ""
par BasicNetwork.wirelessNode[1].mob updateDisplayString true
par BasicNetwork.wirelessNode[1].mob constraintAreaMinX 0m
attr unit m
par BasicNetwork.wirelessNode[1].mob constraintAreaMinY 0m
attr unit m
par BasicNetwork.wirelessNode[1].mob constraintAreaMinZ 0m
attr unit m
par BasicNetwork.wirelessNode[1].mob constraintAreaMaxX 300m
attr unit m
par BasicNetwork.wirelessNode[1].mob constraintAreaMaxY 300m
attr unit m
par BasicNetwork.wirelessNode[1].mob constraintAreaMaxZ 0m
attr unit m
par BasicNetwork.wirelessNode[1].mob initialX 144.657m
attr unit m
par BasicNetwork.wirelessNode[1].mob initialY 108.241m
attr unit m
par BasicNetwork.wirelessNode[1].mob initialZ 0m
attr unit m
par BasicNetwork.wirelessNode[1].mob initialLatitude "nan deg"
attr unit deg
par BasicNetwork.wirelessNode[1].mob initialLongitude "nan deg"
attr unit deg
par BasicNetwork.wirelessNode[1].mob initialAltitude 0m
attr unit m
par BasicNetwork.wirelessNode[1].mob initialHeading 0deg
attr unit deg
par BasicNetwork.wirelessNode[1].mob initialElevation 0deg
attr unit deg
par BasicNetwork.wirelessNode[1].mob initialBank 0deg
attr unit deg
par BasicNetwork.wirelessNode[1].mob initFromDisplayString true
par BasicNetwork.wirelessNode[1].mob updateFromDisplayString true
par BasicNetwork.wirelessNode[1] typename "\"inbaversim.WirelessNode\""
par BasicNetwork.wirelessNode[1] numApps 1
par BasicNetwork.wirelessNode[1] numWiredTransports 0
par BasicNetwork.wirelessNode[1] numWirelessTransports 2
par BasicNetwork.wirelessNode[1] wirelessNodeNumWiredTransports 0
par BasicNetwork.wirelessNode[1] wirelessNodeNumWirelessTransports 2
par BasicNetwork.wirelessNode[1] forwarder "\"RFC8569Forwarder\""
par BasicNetwork.wirelessNode[1] wlanConnectString "\"ccn\""
par BasicNetwork.wirelessNode[1] wlanWirelessRange 300meter
attr unit meter
par BasicNetwork.wirelessNode[1] wlanDataRate 1e+06bps
attr unit bps
par BasicNetwork.wirelessNode[1] wlanPacketErrorRate 0pct
attr unit pct
par BasicNetwork.wirelessNode[1] btConnectString "\"ccn\""
par BasicNetwork.wirelessNode[1] btWirelessRange 300meter
attr unit meter
par BasicNetwork.wirelessNode[1] btDataRate 1e+06bps
attr unit bps
par BasicNetwork.wirelessNode[1] btPacketErrorRate 0pct
attr unit pct
par BasicNetwork.wirelessNode[1] mobility "\"StationaryMobility\""
scalar BasicNetwork.wirelessNode[1] transportTotalWirelessBytesSent:count 3955
attr recordingmode count
attr source transportTotalWirelessBytesSent
scalar BasicNetwork.wirelessNode[1] transportTotalWirelessBytesSent:mean 48
attr recordingmode mean
attr source transportTotalWirelessBytesSent
scalar BasicNetwork.wirelessNode[1] transportTotalWirelessBytesSent:sum 189840
attr recordingmode sum
attr source transportTotalWirelessBytesSent
scalar BasicNetwork.wirelessNode[1] transportTotalWirelessBytesReceived:count 7895
attr recordingmode count
attr source transportTotalWirelessBytesReceived
scalar BasicNetwork.wirelessNode[1] transportTotalWirelessBytesReceived:mean 1048
attr recordingmode mean
attr source transportTotalWirelessBytesReceived
scalar BasicNetwork.wirelessNode[1] transportTotalWirelessBytesReceived:sum 8273960
attr recordingmode sum
attr source transportTotalWirelessBytesReceived
scalar BasicNetwork.wirelessNode[1] transportTotalWiredBytesSent:count 0
attr recordingmode count
attr source transportTotalWiredBytesSent
scalar BasicNetwork.wirelessNode[1] transportTotalWiredBytesSent:mean -nan
attr recordingmode mean
attr source transportTotalWiredBytesSent
scalar BasicNetwork.wirelessNode[1] transportTotalWiredBytesSent:sum 0
attr recordingmode sum
attr source transportTotalWiredBytesSent
scalar BasicNetwork.wirelessNode[1] transportTotalWiredBytesReceived:count 0
attr recordingmode count
attr source transportTotalWiredBytesReceived
scalar BasicNetwork.wirelessNode[1] transportTotalWiredBytesReceived:mean -nan
attr recordingmode mean
attr source transportTotalWiredBytesReceived
scalar BasicNetwork.wirelessNode[1] transportTotalWiredBytesReceived:sum 0
attr recordingmode sum
attr source transportTotalWiredBytesReceived
scalar BasicNetwork.wirelessNode[1] fwdCacheMissRatio:min 0.91618160651921
attr recordingmode min
attr source fwdCacheMissRatio
scalar BasicNetwork.wirelessNode[1] fwdCacheMissRatio:max 1
attr recordingmode max
attr source fwdCacheMissRatio
scalar BasicNetwork.wirelessNode[1] fwdCacheMissRatio:count 4315
attr recordingmode count
attr source fwdCacheMissRatio
scalar BasicNetwork.wirelessNode[1] fwdCacheMissRatio:last 0.91657010428737
attr recordingmode last
attr source fwdCacheMissRatio
scalar BasicNetwork.wirelessNode[1] fwdCacheHitRatio:min 0
attr recordingmode min
attr source fwdCacheHitRatio
scalar BasicNetwork.wirelessNode[1] fwdCacheHitRatio:max 0.083818393480792
attr recordingmode max
attr source fwdCacheHitRatio
scalar BasicNetwork.wirelessNode[1] fwdCacheHitRatio:count 4315
attr recordingmode count
attr source fwdCacheHitRatio
scalar BasicNetwork.wirelessNode[1] fwdCacheHitRatio:last 0.08342989571263
attr recordingmode last
attr source fwdCacheHitRatio
scalar BasicNetwork.wirelessNode[1] fwdPITEntryCount:min 0
attr recordingmode min
attr source fwdPITEntryCount
scalar BasicNetwork.wirelessNode[1] fwdPITEntryCount:max 1
attr recordingmode max
attr source fwdPITEntryCount
scalar BasicNetwork.wirelessNode[1] fwdPITEntryCount:count 7910
attr recordingmode count
attr source fwdPITEntryCount
scalar BasicNetwork.wirelessNode[1] fwdPITEntryCount:mean 0.5
attr recordingmode mean
attr source fwdPITEntryCount
scalar BasicNetwork.wirelessNode[1] fwdPITEntryCount:timeavg 0.00080374581691774
attr recordingmode timeavg
attr source fwdPITEntryCount
scalar BasicNetwork.wirelessNode[1] fwdPITEntryCount:last 0
attr recordingmode last
attr source fwdPITEntryCount
scalar BasicNetwork.wirelessNode[1] fwdFIBEntryCount:min 1
attr recordingmode min
attr source fwdFIBEntryCount
scalar BasicNetwork.wirelessNode[1] fwdFIBEntryCount:max 1
attr recordingmode max
attr source fwdFIBEntryCount
scalar BasicNetwork.wirelessNode[1] fwdFIBEntryCount:count 1
attr recordingmode count
attr source fwdFIBEntryCount
scalar BasicNetwork.wirelessNode[1] fwdFIBEntryCount:mean 1
attr recordingmode mean
attr source fwdFIBEntryCount
scalar BasicNetwork.wirelessNode[1] fwdFIBEntryCount:timeavg 1
attr recordingmode timeavg
attr source fwdFIBEntryCount
scalar BasicNetwork.wirelessNode[1] fwdFIBEntryCount:last 1
attr recordingmode last
attr source fwdFIBEntryCount
scalar BasicNetwork.wirelessNode[1] fwdCacheRemovalsBytes:count 0
attr recordingmode count
attr source fwdCacheRemovalsBytes
scalar BasicNetwork.wirelessNode[1] fwdCacheRemovalsBytes:mean -nan
attr recordingmode mean
attr source fwdCacheRemovalsBytes
scalar BasicNetwork.wirelessNode[1] fwdCacheRemovalsBytes:sum 0
attr recordingmode sum
attr source fwdCacheRemovalsBytes
scalar BasicNetwork.wirelessNode[1] fwdCacheAdditionsBytes:count 7895
attr recordingmode count
attr source fwdCacheAdditionsBytes
scalar BasicNetwork.wirelessNode[1] fwdCacheAdditionsBytes:mean 1000
attr recordingmode mean
attr source fwdCacheAdditionsBytes
scalar BasicNetwork.wirelessNode[1] fwdCacheAdditionsBytes:sum 7895000
attr recordingmode sum
attr source fwdCacheAdditionsBytes
scalar BasicNetwork.wirelessNode[1] fwdCacheSizeBytes:min 1000
attr recordingmode min
attr source fwdCacheSizeBytes
scalar BasicNetwork.wirelessNode[1] fwdCacheSizeBytes:max 7895000
attr recordingmode max
attr source fwdCacheSizeBytes
scalar BasicNetwork.wirelessNode[1] fwdCacheSizeBytes:count 7895
attr recordingmode count
attr source fwdCacheSizeBytes
scalar BasicNetwork.wirelessNode[1] fwdCacheSizeBytes:mean 3948000
attr recordingmode mean
attr source fwdCacheSizeBytes
scalar BasicNetwork.wirelessNode[1] fwdCacheSizeBytes:timeavg 4087696.5133229
attr recordingmode timeavg
attr source fwdCacheSizeBytes
scalar BasicNetwork.wirelessNode[1] fwdCacheSizeBytes:last 7895000
attr recordingmode last
attr source fwdCacheSizeBytes
scalar BasicNetwork.wirelessNode[1] fwdTotalContentObjsBytesSent:count 0
attr recordingmode count
attr source fwdTotalContentObjsBytesSent
scalar BasicNetwork.wirelessNode[1] fwdTotalContentObjsBytesSent:mean -nan
attr recordingmode mean
attr source fwdTotalContentObjsBytesSent
scalar BasicNetwork.wirelessNode[1] fwdTotalContentObjsBytesSent:sum 0
attr recordingmode sum
attr source fwdTotalContentObjsBytesSent
scalar BasicNetwork.wirelessNode[1] fwdTotalInterestRtnsBytesSent:count 0
attr recordingmode count
attr source fwdTotalInterestRtnsBytesSent
scalar BasicNetwork.wirelessNode[1] fwdTotalInterestRtnsBytesSent:mean -nan
attr recordingmode mean
attr source fwdTotalInterestRtnsBytesSent
scalar BasicNetwork.wirelessNode[1] fwdTotalInterestRtnsBytesSent:sum 0
attr recordingmode sum
attr source fwdTotalInterestRtnsBytesSent
scalar BasicNetwork.wirelessNode[1] fwdTotalInterestsBytesSent:count 3955
attr recordingmode count
attr source fwdTotalInterestsBytesSent
scalar BasicNetwork.wirelessNode[1] fwdTotalInterestsBytesSent:mean 16
attr recordingmode mean
attr source fwdTotalInterestsBytesSent
scalar BasicNetwork.wirelessNode[1] fwdTotalInterestsBytesSent:sum 63280
attr recordingmode sum
attr source fwdTotalInterestsBytesSent
scalar BasicNetwork.wirelessNode[1] fwdTotalContentObjsBytesReceived:count 7895
attr recordingmode count
attr source fwdTotalContentObjsBytesReceived
scalar BasicNetwork.wirelessNode[1] fwdTotalContentObjsBytesReceived:mean 1016
attr recordingmode mean
attr source fwdTotalContentObjsBytesReceived
scalar BasicNetwork.wirelessNode[1] fwdTotalContentObjsBytesReceived:sum 8021320
attr recordingmode sum
attr source fwdTotalContentObjsBytesReceived
scalar BasicNetwork.wirelessNode[1] fwdTotalInterestRtnsBytesReceived:count 0
attr recordingmode count
attr source fwdTotalInterestRtnsBytesReceived
scalar BasicNetwork.wirelessNode[1] fwdTotalInterestRtnsBytesReceived:mean -nan
attr recordingmode mean
attr source fwdTotalInterestRtnsBytesReceived
scalar BasicNetwork.wirelessNode[1] fwdTotalInterestRtnsBytesReceived:sum 0
attr recordingmode sum
attr source fwdTotalInterestRtnsBytesReceived
scalar BasicNetwork.wirelessNode[1] fwdTotalInterestsBytesReceived:count 0
attr recordingmode count
attr source fwdTotalInterestsBytesReceived
scalar BasicNetwork.wirelessNode[1] fwdTotalInterestsBytesReceived:mean -nan
attr recordingmode mean
attr source fwdTotalInterestsBytesReceived
scalar BasicNetwork.wirelessNode[1] fwdTotalInterestsBytesReceived:sum 0
attr recordingmode sum
attr source fwdTotalInterestsBytesReceived
scalar BasicNetwork.wirelessNode[1] appTotalDataBytesSent:count 0
attr recordingmode count
attr source appTotalDataBytesSent
scalar BasicNetwork.wirelessNode[1] appTotalDataBytesSent:mean -nan
attr recordingmode mean
attr source appTotalDataBytesSent
scalar BasicNetwork.wirelessNode[1] appTotalDataBytesSent:sum 0
attr recordingmode sum
attr source appTotalDataBytesSent
scalar BasicNetwork.wirelessNode[1] appTotalContentObjsBytesSent:count 0
attr recordingmode count
attr source appTotalContentObjsBytesSent
scalar BasicNetwork.wirelessNode[1] appTotalContentObjsBytesSent:mean -nan
attr recordingmode mean
attr source appTotalContentObjsBytesSent
scalar BasicNetwork.wirelessNode[1] appTotalContentObjsBytesSent:sum 0
attr recordingmode sum
attr source appTotalContentObjsBytesSent
scalar BasicNetwork.wirelessNode[1] appTotalInterestsBytesReceived:count 0
attr recordingmode count
attr source appTotalInterestsBytesReceived
scalar BasicNetwork.wirelessNode[1] appTotalInterestsBytesReceived:mean -nan
attr recordingmode mean
attr source appTotalInterestsBytesReceived
scalar BasicNetwork.wirelessNode[1] appTotalInterestsBytesReceived:sum 0
attr recordingmode sum
attr source appTotalInterestsBytesReceived
scalar BasicNetwork.wirelessNode[1] appTotalDataBytesReceived:count 4315
attr recordingmode count
attr source appTotalDataBytesReceived
scalar BasicNetwork.wirelessNode[1] appTotalDataBytesReceived:mean 1000
attr recordingmode mean
attr source appTotalDataBytesReceived
scalar BasicNetwork.wirelessNode[1] appTotalDataBytesReceived:sum 4315000
attr recordingmode sum
attr source appTotalDataBytesReceived
scalar BasicNetwork.wirelessNode[1] appTotalContentObjsBytesReceived:count 4315
attr recordingmode count
attr source appTotalContentObjsBytesReceived
scalar BasicNetwork.wirelessNode[1] appTotalContentObjsBytesReceived:mean 1016
attr recordingmode mean
attr source appTotalContentObjsBytesReceived
scalar BasicNetwork.wirelessNode[1] appTotalContentObjsBytesReceived:sum 4384040
attr recordingmode sum
attr source appTotalContentObjsBytesReceived
scalar BasicNetwork.wirelessNode[1] appRetransmissionInterestsBytesSent:count 0
attr recordingmode count
attr source appRetransmissionInterestsBytesSent
scalar BasicNetwork.wirelessNode[1] appRetransmissionInterestsBytesSent:mean -nan
attr recordingmode mean
attr source appRetransmissionInterestsBytesSent
scalar BasicNetwork.wirelessNode[1] appRetransmissionInterestsBytesSent:sum 0
attr recordingmode sum
attr source appRetransmissionInterestsBytesSent
scalar BasicNetwork.wirelessNode[1] appTotalInterestsBytesSent:count 4315
attr recordingmode count
attr source appTotalInterestsBytesSent
scalar BasicNetwork.wirelessNode[1] appTotalInterestsBytesSent:mean 16
attr recordingmode mean
attr source appTotalInterestsBytesSent
scalar BasicNetwork.wirelessNode[1] appTotalInterestsBytesSent:sum 69040
attr recordingmode sum
attr source appTotalInterestsBytesSent
scalar BasicNetwork.wirelessNode[1] appSegmentDownloadDuration:min 0
attr recordingmode min
attr source appSegmentDownloadDuration
scalar BasicNetwork.wirelessNode[1] appSegmentDownloadDuration:max 0.02592
attr recordingmode max
attr source appSegmentDownloadDuration
scalar BasicNetwork.wirelessNode[1] appSegmentDownloadDuration:count 4315
attr recordingmode count
attr source appSegmentDownloadDuration
scalar BasicNetwork.wirelessNode[1] appSegmentDownloadDuration:mean 0.016074916338355
attr recordingmode mean
attr source appSegmentDownloadDuration
scalar BasicNetwork.wirelessNode[1] appContentDownloadDuration:min 0
attr recordingmode min
attr source appContentDownloadDuration
scalar BasicNetwork.wirelessNode[1] appContentDownloadDuration:max 0.096064
attr recordingmode max
attr source appContentDownloadDuration
scalar BasicNetwork.wirelessNode[1] appContentDownloadDuration:count 863
attr recordingmode count
attr source appContentDownloadDuration
scalar BasicNetwork.wirelessNode[1] appContentDownloadDuration:mean 0.080374581691773
attr recordingmode mean
attr source appContentDownloadDuration
par BasicNetwork.contentServer.numen typename "\"inbaversim.Numen\""
par BasicNetwork.contentServer.app[0] typename "\"inbaversim.ContentHostApp\""
par BasicNetwork.contentServer.app[0] hostedPrefixNames "\"ccnx://spacetime.com/\""
par BasicNetwork.contentServer.app[0] dataNamePrefix "\"info\""
par BasicNetwork.contentServer.app[0] segmentSize 1000byte
attr unit byte
par BasicNetwork.contentServer.app[0] numSegmentsPerFile 5
par BasicNetwork.contentServer.app[0] cacheTime 7200s
attr unit s
par BasicNetwork.contentServer.fwd typename "\"inbaversim.RFC8569Forwarder\""
par BasicNetwork.contentServer.fwd maximumContentStoreSize 0byte
attr unit byte
par BasicNetwork.contentServer.wired[0] typename "\"inbaversim.WiredTransport\""
par BasicNetwork.contentServer.wired[0] wiredTechnology "\"Ethernet\""
par BasicNetwork.contentServer.wired[0] dataRate 1e+06bps
attr unit bps
par BasicNetwork.contentServer.wired[0] packetErrorRate 0pct
attr unit pct
par BasicNetwork.contentServer.wired[0] headerSize 32byte
attr unit byte
par BasicNetwork.contentServer.mob typename "\"inet.mobility.static.StationaryMobility\""
par BasicNetwork.contentServer.mob subjectModule "\"^\""
par BasicNetwork.contentServer.mob coordinateSystemModule "\"\""
par BasicNetwork.contentServer.mob displayStringTextFormat "\"p: %p\\nv: %v\""
attr mutable ""
par BasicNetwork.contentServer.mob updateDisplayString true
par BasicNetwork.contentServer.mob constraintAreaMinX 0m
attr unit m
par BasicNetwork.contentServer.mob constraintAreaMinY 0m
attr unit m
par BasicNetwork.contentServer.mob constraintAreaMinZ 0m
attr unit m
par BasicNetwork.contentServer.mob constraintAreaMaxX 300m
attr unit m
par BasicNetwork.contentServer.mob constraintAreaMaxY 300m
attr unit m
par BasicNetwork.contentServer.mob constraintAreaMaxZ 0m
attr unit m
par BasicNetwork.contentServer.mob initialX 254.997m
attr unit m
par BasicNetwork.contentServer.mob initialY 63.6998m
attr unit m
par BasicNetwork.contentServer.mob initialZ 0m
attr unit m
par BasicNetwork.contentServer.mob initialLatitude "nan deg"
attr unit deg
par BasicNetwork.contentServer.mob initialLongitude "nan deg"
attr unit deg
par BasicNetwork.contentServer.mob initialAltitude 0m
attr unit m
par BasicNetwork.contentServer.mob initialHeading 0deg
attr unit deg
par BasicNetwork.contentServer.mob initialElevation 0deg
attr unit deg
par BasicNetwork.contentServer.mob initialBank 0deg
attr unit deg
par BasicNetwork.contentServer.mob initFromDisplayString true
par BasicNetwork.contentServer.mob updateFromDisplayString true
par BasicNetwork.contentServer typename "\"inbaversim.ContentServer\""
par BasicNetwork.contentServer numApps 1
par BasicNetwork.contentServer numWiredTransports 1
par BasicNetwork.contentServer numWirelessTransports 0
par BasicNetwork.contentServer contentServerNumWiredTransports 1
par BasicNetwork.contentServer contentServerNumWirelessTransports 0
par BasicNetwork.contentServer forwarder "\"RFC8569Forwarder\""
par BasicNetwork.contentServer ethDataRate 1e+06bps
attr unit bps
par BasicNetwork.contentServer ethPacketErrorRate 0pct
attr unit pct
par BasicNetwork.contentServer mobility "\"StationaryMobility\""
scalar BasicNetwork.contentServer transportTotalWirelessBytesSent:count 0
attr recordingmode count
attr source transportTotalWirelessBytesSent
scalar BasicNetwork.contentServer transportTotalWirelessBytesSent:mean -nan
attr recordingmode mean
attr source transportTotalWirelessBytesSent
scalar BasicNetwork.contentServer transportTotalWirelessBytesSent:sum 0
attr recordingmode sum
attr source transportTotalWirelessBytesSent
scalar BasicNetwork.contentServer transportTotalWirelessBytesReceived:count 0
attr recordingmode count
attr source transportTotalWirelessBytesReceived
scalar BasicNetwork.contentServer transportTotalWirelessBytesReceived:mean -nan
attr recordingmode mean
attr source transportTotalWirelessBytesReceived
scalar BasicNetwork.contentServer transportTotalWirelessBytesReceived:sum 0
attr recordingmode sum
attr source transportTotalWirelessBytesReceived
scalar BasicNetwork.contentServer transportTotalWiredBytesSent:count 7895
attr recordingmode count
attr source transportTotalWiredBytesSent
scalar BasicNetwork.contentServer transportTotalWiredBytesSent:mean 1048
attr recordingmode mean
attr source transportTotalWiredBytesSent
scalar BasicNetwork.contentServer transportTotalWiredBytesSent:sum 8273960
attr recordingmode sum
attr source transportTotalWiredBytesSent
scalar BasicNetwork.contentServer transportTotalWiredBytesReceived:count 7895
attr recordingmode count
attr source transportTotalWiredBytesReceived
scalar BasicNetwork.contentServer transportTotalWiredBytesReceived:mean 48
attr recordingmode mean
attr source transportTotalWiredBytesReceived
scalar BasicNetwork.contentServer transportTotalWiredBytesReceived:sum 378960
attr recordingmode sum
attr source transportTotalWiredBytesReceived
scalar BasicNetwork.contentServer fwdCacheMissRatio:min 1
attr recordingmode min
attr source fwdCacheMissRatio
scalar BasicNetwork.contentServer fwdCacheMissRatio:max 1
attr recordingmode max
attr source fwdCacheMissRatio
scalar BasicNetwork.contentServer fwdCacheMissRatio:count 7895
attr recordingmode count
attr source fwdCacheMissRatio
scalar BasicNetwork.contentServer fwdCacheMissRatio:last 1
attr recordingmode last
attr source fwdCacheMissRatio
scalar BasicNetwork.contentServer fwdCacheHitRatio:min 0
attr recordingmode min
attr source fwdCacheHitRatio
scalar BasicNetwork.contentServer fwdCacheHitRatio:max 0
attr recordingmode max
attr source fwdCacheHitRatio
scalar BasicNetwork.contentServer fwdCacheHitRatio:count 7895
attr recordingmode count
attr source fwdCacheHitRatio
scalar BasicNetwork.contentServer fwdCacheHitRatio:last 0
attr recordingmode last
attr source fwdCacheHitRatio
scalar BasicNetwork.contentServer fwdPITEntryCount:min 0
attr recordingmode min
attr source fwdPITEntryCount
scalar BasicNetwork.contentServer fwdPITEntryCount:max 1
attr recordingmode max
attr source fwdPITEntryCount
scalar BasicNetwork.contentServer fwdPITEntryCount:count 15790
attr recordingmode count
attr source fwdPITEntryCount
scalar BasicNetwork.contentServer fwdPITEntryCount:mean 0.5
attr recordingmode mean
attr source fwdPITEntryCount
scalar BasicNetwork.contentServer fwdPITEntryCount:timeavg 0
attr recordingmode timeavg
attr source fwdPITEntryCount
scalar BasicNetwork.contentServer fwdPITEntryCount:last 0
attr recordingmode last
attr source fwdPITEntryCount
scalar BasicNetwork.contentServer fwdFIBEntryCount:min 1
attr recordingmode min
attr source fwdFIBEntryCount
scalar BasicNetwork.contentServer fwdFIBEntryCount:max 2
attr recordingmode max
attr source fwdFIBEntryCount
scalar BasicNetwork.contentServer fwdFIBEntryCount:count 2
attr recordingmode count
attr source fwdFIBEntryCount
scalar BasicNetwork.contentServer fwdFIBEntryCount:mean 1.5
attr recordingmode mean
attr source fwdFIBEntryCount
scalar BasicNetwork.contentServer fwdFIBEntryCount:timeavg 2
attr recordingmode timeavg
attr source fwdFIBEntryCount
scalar BasicNetwork.contentServer fwdFIBEntryCount:last 2
attr recordingmode last
attr source fwdFIBEntryCount
scalar BasicNetwork.contentServer fwdCacheRemovalsBytes:count 0
attr recordingmode count
attr source fwdCacheRemovalsBytes
scalar BasicNetwork.contentServer fwdCacheRemovalsBytes:mean -nan
attr recordingmode mean
attr source fwdCacheRemovalsBytes
scalar BasicNetwork.contentServer fwdCacheRemovalsBytes:sum 0
attr recordingmode sum
attr source fwdCacheRemovalsBytes
scalar BasicNetwork.contentServer fwdCacheAdditionsBytes:count 7895
attr recordingmode count
attr source fwdCacheAdditionsBytes
scalar BasicNetwork.contentServer fwdCacheAdditionsBytes:mean 1000
attr recordingmode mean
attr source fwdCacheAdditionsBytes
scalar BasicNetwork.contentServer fwdCacheAdditionsBytes:sum 7895000
attr recordingmode sum
attr source fwdCacheAdditionsBytes
scalar BasicNetwork.contentServer fwdCacheSizeBytes:min 1000
attr recordingmode min
attr source fwdCacheSizeBytes
scalar BasicNetwork.contentServer fwdCacheSizeBytes:max 7895000
attr recordingmode max
attr source fwdCacheSizeBytes
scalar BasicNetwork.contentServer fwdCacheSizeBytes:count 7895
attr recordingmode count
attr source fwdCacheSizeBytes
scalar BasicNetwork.contentServer fwdCacheSizeBytes:mean 3948000
attr recordingmode mean
attr source fwdCacheSizeBytes
scalar BasicNetwork.contentServer fwdCacheSizeBytes:timeavg 4087697.2531707
attr recordingmode timeavg
attr source fwdCacheSizeBytes
scalar BasicNetwork.contentServer fwdCacheSizeBytes:last 7895000
attr recordingmode last
attr source fwdCacheSizeBytes
scalar BasicNetwork.contentServer fwdTotalContentObjsBytesSent:count 7895
attr recordingmode count
attr source fwdTotalContentObjsBytesSent
scalar BasicNetwork.contentServer fwdTotalContentObjsBytesSent:mean 1016
attr recordingmode mean
attr source fwdTotalContentObjsBytesSent
scalar BasicNetwork.contentServer fwdTotalContentObjsBytesSent:sum 8021320
attr recordingmode sum
attr source fwdTotalContentObjsBytesSent
scalar BasicNetwork.contentServer fwdTotalInterestRtnsBytesSent:count 0
attr recordingmode count
attr source fwdTotalInterestRtnsBytesSent
scalar BasicNetwork.contentServer fwdTotalInterestRtnsBytesSent:mean -nan
attr recordingmode mean
attr source fwdTotalInterestRtnsBytesSent
scalar BasicNetwork.contentServer fwdTotalInterestRtnsBytesSent:sum 0
attr recordingmode sum
attr source fwdTotalInterestRtnsBytesSent
scalar BasicNetwork.contentServer fwdTotalInterestsBytesSent:count 0
attr recordingmode count
attr source fwdTotalInterestsBytesSent
scalar BasicNetwork.contentServer fwdTotalInterestsBytesSent:mean -nan
attr recordingmode mean
attr source fwdTotalInterestsBytesSent
scalar BasicNetwork.contentServer fwdTotalInterestsBytesSent:sum 0
attr recordingmode sum
attr source fwdTotalInterestsBytesSent
scalar BasicNetwork.contentServer fwdTotalContentObjsBytesReceived:count 0
attr recordingmode count
attr source fwdTotalContentObjsBytesReceived
scalar BasicNetwork.contentServer fwdTotalContentObjsBytesReceived:mean -nan
attr recordingmode mean
attr source fwdTotalContentObjsBytesReceived
scalar BasicNetwork.contentServer fwdTotalContentObjsBytesReceived:sum 0
attr recordingmode sum
attr source fwdTotalContentObjsBytesReceived
scalar BasicNetwork.contentServer fwdTotalInterestRtnsBytesReceived:count 0
attr recordingmode count
attr source fwdTotalInterestRtnsBytesReceived
scalar BasicNetwork.contentServer fwdTotalInterestRtnsBytesReceived:mean -nan
attr recordingmode mean
attr source fwdTotalInterestRtnsBytesReceived
scalar BasicNetwork.contentServer fwdTotalInterestRtnsBytesReceived:sum 0
attr recordingmode sum
attr source fwdTotalInterestRtnsBytesReceived
scalar BasicNetwork.contentServer fwdTotalInterestsBytesReceived:count 7895
attr recordingmode count
attr source fwdTotalInterestsBytesReceived
scalar BasicNetwork.contentServer fwdTotalInterestsBytesReceived:mean 16
attr recordingmode mean
attr source fwdTotalInterestsBytesReceived
scalar BasicNetwork.contentServer fwdTotalInterestsBytesReceived:sum 126320
attr recordingmode sum
attr source fwdTotalInterestsBytesReceived
scalar BasicNetwork.contentServer appTotalDataBytesSent:count 7895
attr recordingmode count
attr source appTotalDataBytesSent
scalar BasicNetwork.contentServer appTotalDataBytesSent:mean 1000
attr recordingmode mean
attr source appTotalDataBytesSent
scalar BasicNetwork.contentServer appTotalDataBytesSent:sum 7895000
attr recordingmode sum
attr source appTotalDataBytesSent
scalar BasicNetwork.contentServer appTotalContentObjsBytesSent:count 7895
attr recordingmode count
attr source appTotalContentObjsBytesSent
scalar BasicNetwork.contentServer appTotalContentObjsBytesSent:mean 1016
attr recordingmode mean
attr source appTotalContentObjsBytesSent
scalar BasicNetwork.contentServer appTotalContentObjsBytesSent:sum 8021320
attr recordingmode sum
attr source appTotalContentObjsBytesSent
scalar BasicNetwork.contentServer appTotalInterestsBytesReceived:count 7895
attr recordingmode count
attr source appTotalInterestsBytesReceived
scalar BasicNetwork.contentServer appTotalInterestsBytesReceived:mean 16
attr recordingmode mean
attr source appTotalInterestsBytesReceived
scalar BasicNetwork.contentServer appTotalInterestsBytesReceived:sum 126320
attr recordingmode sum
attr source appTotalInterestsBytesReceived
scalar BasicNetwork.contentServer appTotalDataBytesReceived:count 0
attr recordingmode count
attr source appTotalDataBytesReceived
scalar BasicNetwork.contentServer appTotalDataBytesReceived:mean -nan
attr recordingmode mean
attr source appTotalDataBytesReceived
scalar BasicNetwork.contentServer appTotalDataBytesReceived:sum 0
attr recordingmode sum
attr source appTotalDataBytesReceived
scalar BasicNetwork.contentServer appTotalContentObjsBytesReceived:count 0
attr recordingmode count
attr source appTotalContentObjsBytesReceived
scalar BasicNetwork.contentServer appTotalContentObjsBytesReceived:mean -nan
attr recordingmode mean
attr source appTotalContentObjsBytesReceived
scalar BasicNetwork.contentServer appTotalContentObjsBytesReceived:sum 0
attr recordingmode sum
attr source appTotalContentObjsBytesReceived
scalar BasicNetwork.contentServer appRetransmissionInterestsBytesSent:count 0
attr recordingmode count
attr source appRetransmissionInterestsBytesSent
scalar BasicNetwork.contentServer appRetransmissionInterestsBytesSent:mean -nan
attr recordingmode mean
attr source appRetransmissionInterestsBytesSent
scalar BasicNetwork.contentServer appRetransmissionInterestsBytesSent:sum 0
attr recordingmode sum
attr source appRetransmissionInterestsBytesSent
scalar BasicNetwork.contentServer appTotalInterestsBytesSent:count 0
attr recordingmode count
attr source appTotalInterestsBytesSent
scalar BasicNetwork.contentServer appTotalInterestsBytesSent:mean -nan
attr recordingmode mean
attr source appTotalInterestsBytesSent
scalar BasicNetwork.contentServer appTotalInterestsBytesSent:sum 0
attr recordingmode sum
attr source appTotalInterestsBytesSent
scalar BasicNetwork.contentServer appSegmentDownloadDuration:min -nan
attr recordingmode min
attr source appSegmentDownloadDuration
scalar BasicNetwork.contentServer appSegmentDownloadDuration:max -nan
attr recordingmode max
attr source appSegmentDownloadDuration
scalar BasicNetwork.contentServer appSegmentDownloadDuration:count 0
attr recordingmode count
attr source appSegmentDownloadDuration
scalar BasicNetwork.contentServer appSegmentDownloadDuration:mean -nan
attr recordingmode mean
attr source appSegmentDownloadDuration
scalar BasicNetwork.contentServer appContentDownloadDuration:min -nan
attr recordingmode min
attr source appContentDownloadDuration
scalar BasicNetwork.contentServer appContentDownloadDuration:max -nan
attr recordingmode max
attr source appContentDownloadDuration
scalar BasicNetwork.contentServer appContentDownloadDuration:count 0
attr recordingmode count
attr source appContentDownloadDuration
scalar BasicNetwork.contentServer appContentDownloadDuration:mean -nan
attr recordingmode mean
attr source appContentDownloadDuration
par BasicNetwork.demiurge typename "\"inbaversim.Demiurge\""
par BasicNetwork typename "\"inbaversim.simulations.BasicNetwork\""
scalar BasicNetwork fwdNetworkCacheMissRatio:min 0.96975308641975
attr recordingmode min
attr source fwdNetworkCacheMissRatio
scalar BasicNetwork fwdNetworkCacheMissRatio:max 1
attr recordingmode max
attr source fwdNetworkCacheMissRatio
scalar BasicNetwork fwdNetworkCacheMissRatio:count 24420
attr recordingmode count
attr source fwdNetworkCacheMissRatio
scalar BasicNetwork fwdNetworkCacheMissRatio:last 0.96990171990172
attr recordingmode last
attr source fwdNetworkCacheMissRatio
scalar BasicNetwork fwdNetworkCacheHitRatio:min 0
attr recordingmode min
attr source fwdNetworkCacheHitRatio
scalar BasicNetwork fwdNetworkCacheHitRatio:max 0.030246913580247
attr recordingmode max
attr source fwdNetworkCacheHitRatio
scalar BasicNetwork fwdNetworkCacheHitRatio:count 24420
attr recordingmode count
attr source fwdNetworkCacheHitRatio
scalar BasicNetwork fwdNetworkCacheHitRatio:last 0.03009828009828
attr recordingmode last
attr source fwdNetworkCacheHitRatio
scalar BasicNetwork appNetworkInterestRetransmissionCount:last nan
attr recordingmode last
attr source appNetworkInterestRetransmissionCount

